<?xml version="1.0" encoding="UTF-8"?>

<!-- generated on Sun Aug 12 15:08:25 2018 by Netedit Version 0.32.0
<?xml version="1.0" encoding="UTF-8"?>

<configuration xmlns:xsi="http://www.w3.org/2001/XMLSchema-instance" xsi:noNamespaceSchemaLocation="http://sumo.dlr.de/xsd/netconvertConfiguration.xsd">

    <input>
        <sumo-net-file value="crossroad.net.xml"/>
    </input>

    <output>
        <output-file value="crossroad.net.xml"/>
        <plain-output-prefix value="/Users/minghaoshen/Desktop/crossroad/crossroad"/>
    </output>

    <processing>
        <no-internal-links value="false"/>
        <no-turnarounds value="true"/>
        <offset.disable-normalization value="true"/>
        <lefthand value="false"/>
        <junctions.corner-detail value="0"/>
        <rectangular-lane-cut value="false"/>
        <walkingareas value="false"/>
    </processing>

</configuration>
-->

<edges version="0.27" xmlns:xsi="http://www.w3.org/2001/XMLSchema-instance" xsi:noNamespaceSchemaLocation="http://sumo.dlr.de/xsd/edges_file.xsd">
    <edge id="0t1" from="0" to="1" priority="1" numLanes="3" speed="13.89" endOffset="5.00">
        <lane index="0" allow="pedestrian" width="5.00"/>
        <lane index="1" disallow="pedestrian" width="3.54"/>
        <lane index="2" disallow="pedestrian" width="3.54"/>
    </edge>
    <edge id="1t0" from="1" to="0" priority="1" numLanes="3" speed="13.89" endOffset="5.00">
        <lane index="0" allow="pedestrian" width="5.00"/>
        <lane index="1" disallow="pedestrian" width="3.54"/>
        <lane index="2" disallow="pedestrian" width="3.54"/>
    </edge>
    <edge id="1t2" from="1" to="2" priority="1" numLanes="3" speed="13.89" endOffset="5.00">
        <lane index="0" allow="pedestrian" width="5.00"/>
        <lane index="1" disallow="pedestrian" width="3.54"/>
        <lane index="2" disallow="pedestrian" width="3.54"/>
    </edge>
    <edge id="1t3" from="1" to="3" priority="1" numLanes="3" speed="13.89" endOffset="5.00">
        <lane index="0" allow="pedestrian" width="5.00"/>
        <lane index="1" disallow="pedestrian" width="3.54"/>
        <lane index="2" disallow="pedestrian" width="3.54"/>
    </edge>
    <edge id="1t4" from="1" to="4" priority="1" numLanes="3" speed="13.89" endOffset="5.00">
        <lane index="0" allow="pedestrian" width="5.00"/>
        <lane index="1" disallow="pedestrian" width="3.54"/>
        <lane index="2" disallow="pedestrian" width="3.54"/>
    </edge>
    <edge id="2t1" from="2" to="1" priority="1" numLanes="3" speed="13.89" endOffset="5.00">
        <lane index="0" allow="pedestrian" width="5.00"/>
        <lane index="1" disallow="pedestrian" width="3.54"/>
        <lane index="2" disallow="pedestrian" width="3.54"/>
    </edge>
    <edge id="2t5" from="2" to="5" priority="1" numLanes="3" speed="13.89" shape="0.00,213.05 -31.59,213.05" endOffset="5.00">
        <lane index="0" allow="pedestrian" width="5.00"/>
        <lane index="1" disallow="pedestrian" width="3.54"/>
        <lane index="2" disallow="pedestrian" width="3.54"/>
    </edge>
    <edge id="2t6" from="2" to="6" priority="1" numLanes="3" speed="13.89" endOffset="5.00">
        <lane index="0" allow="pedestrian" width="5.00"/>
        <lane index="1" disallow="pedestrian" width="3.54"/>
        <lane index="2" disallow="pedestrian" width="3.54"/>
    </edge>
    <edge id="3t1" from="3" to="1" priority="1" numLanes="3" speed="13.89" endOffset="5.00">
        <lane index="0" allow="pedestrian" width="5.00"/>
        <lane index="1" disallow="pedestrian" width="3.54"/>
        <lane index="2" disallow="pedestrian" width="3.54"/>
    </edge>
    <edge id="4t1" from="4" to="1" priority="1" numLanes="3" speed="13.89" endOffset="5.00">
        <lane index="0" allow="pedestrian" width="5.00"/>
        <lane index="1" disallow="pedestrian" width="3.54"/>
        <lane index="2" disallow="pedestrian" width="3.54"/>
    </edge>
    <edge id="5t2" from="5" to="2" priority="1" numLanes="3" speed="13.89" shape="-31.59,213.05 0.00,213.05" endOffset="5.00">
        <lane index="0" allow="pedestrian" width="5.00"/>
        <lane index="1" disallow="pedestrian" width="3.54"/>
        <lane index="2" disallow="pedestrian" width="3.54"/>
    </edge>
    <edge id="6t2" from="6" to="2" priority="1" numLanes="3" speed="13.89" endOffset="5.00">
        <lane index="0" allow="pedestrian" width="5.00"/>
        <lane index="1" disallow="pedestrian" width="3.54"/>
        <lane index="2" disallow="pedestrian" width="3.54"/>
    </edge>
</edges>
