<?xml version="1.0" encoding="UTF-8"?>

<!-- generated on Mon Sep 17 16:56:22 2018 by Netedit Version 0.32.0
<?xml version="1.0" encoding="UTF-8"?>

<configuration xmlns:xsi="http://www.w3.org/2001/XMLSchema-instance" xsi:noNamespaceSchemaLocation="http://sumo.dlr.de/xsd/netconvertConfiguration.xsd">

    <input>
        <sumo-net-file value="/Users/lst1023/Documents/sumo_input/city_cross_6lanes_construct_001/city_cross_6lanes_construct_001.net.xml"/>
    </input>

    <output>
        <output-file value="/Users/lst1023/Documents/sumo_input/city_cross_6lanes_construct_001/city_cross_6lanes_construct_001.net.xml"/>
    </output>

    <processing>
        <no-internal-links value="false"/>
        <no-turnarounds value="true"/>
        <offset.disable-normalization value="true"/>
        <lefthand value="false"/>
        <junctions.corner-detail value="0"/>
        <rectangular-lane-cut value="false"/>
        <walkingareas value="false"/>
    </processing>

</configuration>
-->

<net version="0.27" xmlns:xsi="http://www.w3.org/2001/XMLSchema-instance" xsi:noNamespaceSchemaLocation="http://sumo.dlr.de/xsd/net_file.xsd">

    <location netOffset="0.00,0.00" convBoundary="-61.34,0.00,61.34,210.00" origBoundary="-10000000000.00,-10000000000.00,10000000000.00,10000000000.00" projParameter="!"/>

    <edge id=":gneJ10_w0" function="walkingarea">
        <lane id=":gneJ10_w0_0" index="0" allow="pedestrian" speed="1.00" length="0.10" width="6.60" shape="9.90,0.00 16.50,0.00 -14.63,0.00 -8.03,0.00"/>
    </edge>
    <edge id=":gneJ11_0" function="internal">
        <lane id=":gneJ11_0_0" index="0" allow="bus" speed="13.89" length="0.10" width="3.14" shape="8.23,190.00 8.23,190.00"/>
        <lane id=":gneJ11_0_1" index="1" allow="passenger" speed="13.89" length="0.10" width="3.24" shape="4.94,190.00 4.94,190.00"/>
        <lane id=":gneJ11_0_2" index="2" allow="passenger" speed="13.89" length="0.10" width="2.78" shape="1.83,190.00 1.83,190.00"/>
        <lane id=":gneJ11_0_3" index="3" allow="passenger" speed="13.89" length="0.10" width="3.31" shape="-1.31,190.00 -1.31,190.00"/>
        <lane id=":gneJ11_0_4" index="4" allow="passenger" speed="13.89" length="0.10" width="2.76" shape="-4.45,190.00 -4.45,190.00"/>
        <lane id=":gneJ11_0_5" index="5" allow="bicycle" speed="13.89" length="0.10" width="2.00" shape="-6.93,190.00 -6.93,190.00"/>
    </edge>
    <edge id=":gneJ11_w0" function="walkingarea">
        <lane id=":gneJ11_w0_0" index="0" allow="pedestrian" speed="1.00" length="0.10" width="6.60" shape="-8.03,190.00 -14.63,190.00 -14.63,190.00 -8.03,190.00"/>
    </edge>
    <edge id=":gneJ11_w1" function="walkingarea">
        <lane id=":gneJ11_w1_0" index="0" allow="pedestrian" speed="1.00" length="0.10" width="6.60" shape="9.90,190.00 16.50,190.00 16.50,190.00 9.90,190.00"/>
    </edge>
    <edge id=":gneJ12_w0" function="walkingarea">
        <lane id=":gneJ12_w0_0" index="0" allow="pedestrian" speed="1.00" length="0.10" width="6.60" shape="-8.03,210.00 -14.63,210.00 16.50,210.00 9.90,210.00"/>
    </edge>
    <edge id=":gneJ13_0" function="internal">
        <lane id=":gneJ13_0_0" index="0" allow="bus bicycle" speed="13.89" length="0.10" width="3.14" shape="8.23,15.00 8.23,15.00"/>
        <lane id=":gneJ13_0_1" index="1" allow="passenger bicycle" speed="13.89" length="0.10" width="3.31" shape="-1.31,15.00 -1.32,15.00"/>
        <lane id=":gneJ13_0_2" index="2" allow="passenger bicycle" speed="13.89" length="0.10" width="2.76" shape="-4.45,15.00 -4.45,15.00"/>
        <lane id=":gneJ13_0_3" index="3" allow="bicycle" speed="13.89" length="0.10" width="2.00" shape="-6.93,15.00 -6.93,15.00"/>
    </edge>
    <edge id=":gneJ13_w0" function="walkingarea">
        <lane id=":gneJ13_w0_0" index="0" allow="pedestrian" speed="1.00" length="0.10" width="6.60" shape="-8.03,15.00 -14.63,15.00 -14.63,15.00 -8.03,15.00"/>
    </edge>
    <edge id=":gneJ13_w1" function="walkingarea">
        <lane id=":gneJ13_w1_0" index="0" allow="pedestrian" speed="1.00" length="0.10" width="6.60" shape="9.90,15.00 16.50,15.00 16.50,15.00 9.90,15.00"/>
    </edge>
    <edge id=":gneJ14_0" function="internal">
        <lane id=":gneJ14_0_0" index="0" allow="bus bicycle" speed="13.89" length="0.10" width="3.14" shape="8.23,40.00 8.23,40.00"/>
        <lane id=":gneJ14_0_1" index="1" allow="passenger bicycle" speed="13.89" length="0.10" width="3.31" shape="-1.32,40.00 -1.31,40.00"/>
        <lane id=":gneJ14_0_2" index="2" allow="passenger bicycle" speed="13.89" length="0.10" width="2.76" shape="-4.45,40.00 -4.45,40.00"/>
        <lane id=":gneJ14_0_3" index="3" allow="bicycle" speed="13.89" length="0.10" width="2.00" shape="-6.93,40.00 -6.93,40.00"/>
    </edge>
    <edge id=":gneJ14_w0" function="walkingarea">
        <lane id=":gneJ14_w0_0" index="0" allow="pedestrian" speed="1.00" length="0.10" width="6.60" shape="-8.03,40.00 -14.63,40.00 -14.63,40.00 -8.03,40.00"/>
    </edge>
    <edge id=":gneJ14_w1" function="walkingarea">
        <lane id=":gneJ14_w1_0" index="0" allow="pedestrian" speed="1.00" length="0.10" width="6.60" shape="9.90,40.00 16.50,40.00 16.50,40.00 9.90,40.00"/>
    </edge>
    <edge id=":gneJ15_0" function="internal">
        <lane id=":gneJ15_0_0" index="0" allow="bus" speed="13.89" length="0.10" width="3.14" shape="8.23,112.00 8.23,112.00"/>
        <lane id=":gneJ15_0_1" index="1" allow="passenger" speed="13.89" length="0.10" width="3.24" shape="4.94,112.00 4.94,112.00"/>
        <lane id=":gneJ15_0_2" index="2" allow="passenger" speed="13.89" length="0.10" width="2.78" shape="1.83,112.00 1.83,112.00"/>
        <lane id=":gneJ15_0_3" index="3" allow="bicycle" speed="13.89" length="0.10" width="2.00" shape="-6.93,112.00 -6.93,112.00"/>
    </edge>
    <edge id=":gneJ15_w0" function="walkingarea">
        <lane id=":gneJ15_w0_0" index="0" allow="pedestrian" speed="1.00" length="0.10" width="6.60" shape="-8.03,112.00 -14.63,112.00 -14.63,112.00 -8.03,112.00"/>
    </edge>
    <edge id=":gneJ15_w1" function="walkingarea">
        <lane id=":gneJ15_w1_0" index="0" allow="pedestrian" speed="1.00" length="0.10" width="6.60" shape="9.90,112.00 16.50,112.00 16.50,112.00 9.90,112.00"/>
    </edge>
    <edge id=":gneJ17_0" function="internal">
        <lane id=":gneJ17_0_0" index="0" allow="bus" speed="13.89" length="0.10" width="3.14" shape="8.23,87.00 8.23,87.00"/>
        <lane id=":gneJ17_0_1" index="1" allow="passenger" speed="13.89" length="0.10" width="3.24" shape="4.94,87.00 4.94,87.00"/>
        <lane id=":gneJ17_0_2" index="2" allow="passenger" speed="13.89" length="0.10" width="2.78" shape="1.83,87.00 1.83,87.00"/>
        <lane id=":gneJ17_0_3" index="3" allow="bicycle" speed="13.89" length="0.10" width="2.00" shape="-6.93,87.00 -6.93,87.00"/>
    </edge>
    <edge id=":gneJ17_w0" function="walkingarea">
        <lane id=":gneJ17_w0_0" index="0" allow="pedestrian" speed="1.00" length="0.10" width="6.60" shape="-8.03,87.00 -14.63,87.00 -14.63,87.00 -8.03,87.00"/>
    </edge>
    <edge id=":gneJ17_w1" function="walkingarea">
        <lane id=":gneJ17_w1_0" index="0" allow="pedestrian" speed="1.00" length="0.10" width="6.60" shape="9.90,87.00 16.50,87.00 16.50,87.00 9.90,87.00"/>
    </edge>
    <edge id=":gneJ7_0" function="internal">
        <lane id=":gneJ7_0_0" index="0" allow="bus bicycle" speed="13.89" length="11.27" width="3.14" shape="18.00,68.32 13.73,68.90 10.67,70.65 8.84,73.56"/>
    </edge>
    <edge id=":gneJ7_1" function="internal">
        <lane id=":gneJ7_1_0" index="0" allow="passenger" speed="13.89" length="13.99" width="3.24" shape="18.00,68.32 12.29,68.90 8.21,70.65 5.76,73.56"/>
    </edge>
    <edge id=":gneJ7_2" function="internal">
        <lane id=":gneJ7_2_0" index="0" allow="passenger" speed="13.89" length="16.65" width="2.78" shape="18.00,68.32 10.93,68.90 5.87,70.65 2.84,73.56"/>
    </edge>
    <edge id=":gneJ7_3" function="internal">
        <lane id=":gneJ7_3_0" index="0" speed="13.89" length="34.13" width="2.25" shape="18.00,68.32 -16.13,68.32"/>
    </edge>
    <edge id=":gneJ7_4" function="internal">
        <lane id=":gneJ7_4_0" index="0" allow="passenger" speed="13.89" length="9.93" width="3.31" shape="18.00,65.97 9.55,66.69 8.18,67.19"/>
    </edge>
    <edge id=":gneJ7_5" function="internal">
        <lane id=":gneJ7_5_0" index="0" allow="passenger" speed="13.89" length="11.51" width="2.76" shape="18.00,65.97 8.18,66.69 6.59,67.19"/>
    </edge>
    <edge id=":gneJ7_6" function="internal">
        <lane id=":gneJ7_6_0" index="0" allow="passenger" speed="13.89" length="34.13" width="2.25" shape="18.00,65.97 -16.13,65.97"/>
    </edge>
    <edge id=":gneJ7_24" function="internal">
        <lane id=":gneJ7_24_0" index="0" speed="13.89" length="4.13" width="3.14" shape="8.84,73.56 8.23,77.64"/>
    </edge>
    <edge id=":gneJ7_25" function="internal">
        <lane id=":gneJ7_25_0" index="0" speed="13.89" length="4.16" width="3.24" shape="5.76,73.56 4.94,77.64"/>
    </edge>
    <edge id=":gneJ7_26" function="internal">
        <lane id=":gneJ7_26_0" index="0" speed="13.89" length="4.20" width="2.78" shape="2.84,73.56 1.83,77.64"/>
    </edge>
    <edge id=":gneJ7_27" function="internal">
        <lane id=":gneJ7_27_0" index="0" speed="13.89" length="15.36" width="3.31" shape="8.18,67.19 3.51,68.88 -0.11,72.53 -1.31,77.64"/>
    </edge>
    <edge id=":gneJ7_28" function="internal">
        <lane id=":gneJ7_28_0" index="0" speed="13.89" length="16.55" width="2.76" shape="6.59,67.19 1.16,68.88 -3.05,72.53 -4.45,77.64"/>
    </edge>
    <edge id=":gneJ7_7" function="internal">
        <lane id=":gneJ7_7_0" index="0" allow="passenger" speed="13.89" length="11.36" width="2.25" shape="8.23,51.94 8.84,56.02 10.67,58.93 13.73,60.68 14.00,60.72"/>
    </edge>
    <edge id=":gneJ7_8" function="internal">
        <lane id=":gneJ7_8_0" index="0" allow="bus bicycle" speed="13.89" length="25.70" width="3.14" shape="8.23,51.94 8.23,77.64"/>
    </edge>
    <edge id=":gneJ7_9" function="internal">
        <lane id=":gneJ7_9_0" index="0" allow="passenger" speed="13.89" length="6.79" width="2.25" shape="4.94,51.94 5.76,57.05 6.66,58.39"/>
    </edge>
    <edge id=":gneJ7_10" function="internal">
        <lane id=":gneJ7_10_0" index="0" allow="passenger" speed="13.89" length="25.70" width="3.24" shape="4.94,51.94 4.94,77.64"/>
        <lane id=":gneJ7_10_1" index="1" allow="passenger" speed="13.89" length="25.70" width="2.78" shape="1.83,51.94 1.83,77.64"/>
        <lane id=":gneJ7_10_2" index="2" allow="passenger" speed="13.89" length="25.70" width="3.31" shape="-1.31,51.94 -1.31,77.64"/>
        <lane id=":gneJ7_10_3" index="3" allow="passenger" speed="13.89" length="25.70" width="2.76" shape="-4.45,51.94 -4.45,77.64"/>
    </edge>
    <edge id=":gneJ7_14" function="internal">
        <lane id=":gneJ7_14_0" index="0" allow="passenger" speed="13.89" length="16.70" width="2.25" shape="-4.45,51.94 -5.18,58.08 -7.37,62.46 -11.02,65.09 -12.13,65.28"/>
    </edge>
    <edge id=":gneJ7_15" function="internal">
        <lane id=":gneJ7_15_0" index="0" allow="bicycle" speed="13.89" length="25.70" width="2.00" shape="-6.93,51.94 -6.93,77.64"/>
    </edge>
    <edge id=":gneJ7_16" function="internal">
        <lane id=":gneJ7_16_0" index="0" speed="13.89" length="16.79" width="2.25" shape="-6.93,51.94 -7.51,59.10 -9.23,64.22 -12.11,67.29"/>
    </edge>
    <edge id=":gneJ7_29" function="internal">
        <lane id=":gneJ7_29_0" index="0" speed="13.89" length="4.04" width="2.25" shape="14.00,60.72 18.00,61.27"/>
    </edge>
    <edge id=":gneJ7_30" function="internal">
        <lane id=":gneJ7_30_0" index="0" speed="13.89" length="13.16" width="2.25" shape="6.66,58.39 8.21,60.70 12.29,62.89 18.00,63.62"/>
    </edge>
    <edge id=":gneJ7_31" function="internal">
        <lane id=":gneJ7_31_0" index="0" speed="13.89" length="4.06" width="2.25" shape="-12.13,65.28 -16.13,65.97"/>
    </edge>
    <edge id=":gneJ7_32" function="internal">
        <lane id=":gneJ7_32_0" index="0" speed="13.89" length="4.15" width="2.25" shape="-12.11,67.29 -16.13,68.32"/>
    </edge>
    <edge id=":gneJ7_17" function="internal">
        <lane id=":gneJ7_17_0" index="0" allow="bus bicycle" speed="13.89" length="17.53" width="3.14" shape="-16.13,61.27 -5.47,62.29 0.85,64.84"/>
    </edge>
    <edge id=":gneJ7_18" function="internal">
        <lane id=":gneJ7_18_0" index="0" allow="passenger" speed="13.89" length="15.31" width="3.24" shape="-16.13,61.27 -6.91,62.29 -1.44,64.84"/>
    </edge>
    <edge id=":gneJ7_19" function="internal">
        <lane id=":gneJ7_19_0" index="0" allow="passenger" speed="13.89" length="34.13" width="2.25" shape="-16.13,61.27 18.00,61.27"/>
    </edge>
    <edge id=":gneJ7_20" function="internal">
        <lane id=":gneJ7_20_0" index="0" allow="passenger" speed="13.89" length="13.24" width="2.78" shape="-16.13,61.27 -8.27,62.29 -3.61,64.84"/>
    </edge>
    <edge id=":gneJ7_21" function="internal">
        <lane id=":gneJ7_21_0" index="0" allow="passenger" speed="13.89" length="34.13" width="2.25" shape="-16.13,63.62 18.00,63.62"/>
    </edge>
    <edge id=":gneJ7_22" function="internal">
        <lane id=":gneJ7_22_0" index="0" allow="passenger" speed="13.89" length="7.25" width="3.31" shape="-16.13,63.62 -9.65,64.49 -9.03,64.84"/>
    </edge>
    <edge id=":gneJ7_23" function="internal">
        <lane id=":gneJ7_23_0" index="0" allow="passenger" speed="13.89" length="5.78" width="2.76" shape="-16.13,63.62 -11.02,64.49 -10.54,64.84"/>
    </edge>
    <edge id=":gneJ7_33" function="internal">
        <lane id=":gneJ7_33_0" index="0" speed="13.89" length="15.57" width="3.14" shape="0.85,64.84 2.14,65.36 6.71,70.48 8.23,77.64"/>
    </edge>
    <edge id=":gneJ7_34" function="internal">
        <lane id=":gneJ7_34_0" index="0" speed="13.89" length="14.98" width="3.24" shape="-1.44,64.84 -0.33,65.36 3.62,70.48 4.94,77.64"/>
    </edge>
    <edge id=":gneJ7_35" function="internal">
        <lane id=":gneJ7_35_0" index="0" speed="13.89" length="14.46" width="2.78" shape="-3.61,64.84 -2.66,65.36 0.71,70.48 1.83,77.64"/>
    </edge>
    <edge id=":gneJ7_36" function="internal">
        <lane id=":gneJ7_36_0" index="0" speed="13.89" length="16.01" width="3.31" shape="-9.03,64.84 -5.02,67.12 -2.24,71.50 -1.31,77.64"/>
    </edge>
    <edge id=":gneJ7_37" function="internal">
        <lane id=":gneJ7_37_0" index="0" speed="13.89" length="14.98" width="2.76" shape="-10.54,64.84 -7.37,67.12 -5.18,71.50 -4.45,77.64"/>
    </edge>
    <edge id=":gneJ7_c0" function="crossing" crossingEdges="gneE10.0">
        <lane id=":gneJ7_c0_0" index="0" allow="pedestrian" speed="1.00" length="17.73" width="4.00" shape="9.80,75.64 -7.93,75.64"/>
    </edge>
    <edge id=":gneJ7_c1" function="crossing" crossingEdges="-gneE8 gneE8">
        <lane id=":gneJ7_c1_0" index="0" allow="pedestrian" speed="1.00" length="9.30" width="4.00" shape="16.00,60.14 16.00,69.44"/>
    </edge>
    <edge id=":gneJ7_c2" function="crossing" crossingEdges="gneE9.39">
        <lane id=":gneJ7_c2_0" index="0" allow="pedestrian" speed="1.00" length="17.73" width="4.00" shape="-7.93,53.94 9.80,53.94"/>
    </edge>
    <edge id=":gneJ7_c3" function="crossing" crossingEdges="gneE7 -gneE7">
        <lane id=":gneJ7_c3_0" index="0" allow="pedestrian" speed="1.00" length="9.30" width="4.00" shape="-14.13,69.44 -14.13,60.14"/>
    </edge>
    <edge id=":gneJ7_w0" function="walkingarea">
        <lane id=":gneJ7_w0_0" index="0" allow="pedestrian" speed="1.00" length="16.81" width="6.60" shape="-12.13,69.44 -16.13,69.44 -16.13,67.19 -16.13,69.44 -16.13,69.54 -16.13,76.14 -14.63,77.64 -8.03,77.64 -7.93,77.64 -7.93,73.64"/>
    </edge>
    <edge id=":gneJ7_w1" function="walkingarea">
        <lane id=":gneJ7_w1_0" index="0" allow="pedestrian" speed="1.00" length="6.80" width="6.60" shape="9.80,73.64 9.90,77.64 16.50,77.64 18.00,76.14 18.00,69.54 14.00,69.44"/>
    </edge>
    <edge id=":gneJ7_w2" function="walkingarea">
        <lane id=":gneJ7_w2_0" index="0" allow="pedestrian" speed="1.00" length="6.80" width="6.60" shape="14.00,60.14 18.00,60.14 18.00,60.04 18.00,53.44 16.50,51.94 9.90,51.94 9.80,55.94"/>
    </edge>
    <edge id=":gneJ7_w3" function="walkingarea">
        <lane id=":gneJ7_w3_0" index="0" allow="pedestrian" speed="1.00" length="16.81" width="6.60" shape="-7.93,55.94 -8.03,51.94 -14.63,51.94 -16.13,53.44 -16.13,60.04 -12.13,60.14"/>
    </edge>
    <edge id=":gneJ8_w0" function="walkingarea">
        <lane id=":gneJ8_w0_0" index="0" allow="pedestrian" speed="1.00" length="16.10" width="6.60" shape="-61.34,60.04 -61.34,53.44 -61.34,76.14 -61.34,69.54 -61.34,69.44 -61.34,67.19"/>
    </edge>
    <edge id=":gneJ9_w0" function="walkingarea">
        <lane id=":gneJ9_w0_0" index="0" allow="pedestrian" speed="1.00" length="16.10" width="6.60" shape="61.34,69.54 61.34,76.14 61.34,53.44 61.34,60.04"/>
    </edge>

    <edge id="-gneE7" from="gneJ8" to="gneJ7" priority="1">
        <lane id="-gneE7_0" index="0" allow="pedestrian" speed="13.89" length="45.21" width="6.60" shape="-61.34,56.74 -16.13,56.74"/>
        <lane id="-gneE7_1" index="1" allow="passenger" speed="13.89" length="45.21" width="2.25" shape="-61.34,61.27 -16.13,61.27"/>
        <lane id="-gneE7_2" index="2" allow="passenger" speed="13.89" length="45.21" width="2.25" shape="-61.34,63.62 -16.13,63.62"/>
    </edge>
    <edge id="-gneE8" from="gneJ7" to="gneJ9" priority="1" length="50.14">
        <lane id="-gneE8_0" index="0" allow="pedestrian" speed="13.89" length="50.14" width="6.60" shape="18.00,56.74 61.34,56.74"/>
        <lane id="-gneE8_1" index="1" allow="passenger" speed="13.89" length="50.14" width="2.25" shape="18.00,61.27 61.34,61.27"/>
        <lane id="-gneE8_2" index="2" allow="passenger" speed="13.89" length="50.14" width="2.25" shape="18.00,63.62 61.34,63.62"/>
    </edge>
    <edge id="gneE10.0" from="gneJ7" to="gneJ17" priority="1">
        <lane id="gneE10.0_0" index="0" allow="pedestrian" speed="13.89" length="9.36" width="6.60" shape="13.20,77.64 13.20,87.00"/>
        <lane id="gneE10.0_1" index="1" allow="bus bicycle" speed="13.89" length="9.36" width="3.14" shape="8.23,77.64 8.23,87.00"/>
        <lane id="gneE10.0_2" index="2" allow="passenger" speed="13.89" length="9.36" width="3.24" shape="4.94,77.64 4.94,87.00"/>
        <lane id="gneE10.0_3" index="3" allow="passenger" speed="13.89" length="9.36" width="2.78" shape="1.83,77.64 1.83,87.00"/>
        <lane id="gneE10.0_4" index="4" allow="passenger" speed="13.89" length="9.36" width="3.31" shape="-1.31,77.64 -1.31,87.00"/>
        <lane id="gneE10.0_5" index="5" allow="passenger" speed="13.89" length="9.36" width="2.76" shape="-4.45,77.64 -4.45,87.00"/>
        <lane id="gneE10.0_6" index="6" allow="bicycle" speed="13.89" length="9.36" width="2.00" shape="-6.93,77.64 -6.93,87.00"/>
        <lane id="gneE10.0_7" index="7" allow="pedestrian" speed="13.89" length="9.36" width="6.60" shape="-11.33,77.64 -11.33,87.00"/>
    </edge>
    <edge id="gneE10.72" from="gneJ17" to="gneJ15" priority="1">
        <lane id="gneE10.72_0" index="0" allow="pedestrian" speed="13.89" length="25.00" width="6.60" shape="13.20,87.00 13.20,112.00"/>
        <lane id="gneE10.72_1" index="1" allow="bus" speed="13.89" length="25.00" width="3.14" shape="8.23,87.00 8.23,112.00"/>
        <lane id="gneE10.72_2" index="2" allow="passenger" speed="13.89" length="25.00" width="3.24" shape="4.94,87.00 4.94,112.00"/>
        <lane id="gneE10.72_3" index="3" allow="passenger" speed="13.89" length="25.00" width="2.78" shape="1.83,87.00 1.83,112.00"/>
        <lane id="gneE10.72_4" index="4" disallow="all" speed="13.89" length="25.00" width="3.31" shape="-1.32,87.00 -1.32,112.00"/>
        <lane id="gneE10.72_5" index="5" disallow="all" speed="13.89" length="25.00" width="2.76" shape="-4.45,87.00 -4.45,112.00"/>
        <lane id="gneE10.72_6" index="6" allow="bicycle" speed="13.89" length="25.00" width="2.00" shape="-6.93,87.00 -6.93,112.00"/>
        <lane id="gneE10.72_7" index="7" allow="pedestrian" speed="13.89" length="25.00" width="6.60" shape="-11.33,87.00 -11.33,112.00"/>
    </edge>
    <edge id="gneE10.91" from="gneJ15" to="gneJ11" priority="1">
        <lane id="gneE10.91_0" index="0" allow="pedestrian" speed="13.89" length="78.00" width="6.60" shape="13.20,112.00 13.20,190.00"/>
        <lane id="gneE10.91_1" index="1" allow="bus" speed="13.89" length="78.00" width="3.14" shape="8.23,112.00 8.23,190.00"/>
        <lane id="gneE10.91_2" index="2" allow="passenger" speed="13.89" length="78.00" width="3.24" shape="4.94,112.00 4.94,190.00"/>
        <lane id="gneE10.91_3" index="3" allow="passenger" speed="13.89" length="78.00" width="2.78" shape="1.83,112.00 1.83,190.00"/>
        <lane id="gneE10.91_4" index="4" allow="passenger" speed="13.89" length="78.00" width="3.31" shape="-1.31,112.00 -1.31,190.00"/>
        <lane id="gneE10.91_5" index="5" allow="passenger" speed="13.89" length="78.00" width="2.76" shape="-4.45,112.00 -4.45,190.00"/>
        <lane id="gneE10.91_6" index="6" allow="bicycle" speed="13.89" length="78.00" width="2.00" shape="-6.93,112.00 -6.93,190.00"/>
        <lane id="gneE10.91_7" index="7" allow="pedestrian" speed="13.89" length="78.00" width="6.60" shape="-11.33,112.00 -11.33,190.00"/>
    </edge>
    <edge id="gneE11" from="gneJ11" to="gneJ12" priority="1">
        <lane id="gneE11_0" index="0" allow="pedestrian" speed="13.89" length="20.00" width="6.60" shape="13.20,190.00 13.20,210.00"/>
        <lane id="gneE11_1" index="1" allow="bus" speed="13.89" length="20.00" width="3.14" shape="8.23,190.00 8.23,210.00"/>
        <lane id="gneE11_2" index="2" allow="passenger" speed="13.89" length="20.00" width="3.24" shape="4.94,190.00 4.94,210.00"/>
        <lane id="gneE11_3" index="3" allow="passenger" speed="13.89" length="20.00" width="2.78" shape="1.83,190.00 1.83,210.00"/>
        <lane id="gneE11_4" index="4" allow="passenger" speed="13.89" length="20.00" width="3.31" shape="-1.31,190.00 -1.31,210.00"/>
        <lane id="gneE11_5" index="5" allow="passenger" speed="13.89" length="20.00" width="2.76" shape="-4.45,190.00 -4.45,210.00"/>
        <lane id="gneE11_6" index="6" allow="bicycle" speed="13.89" length="20.00" width="2.00" shape="-6.93,190.00 -6.93,210.00"/>
        <lane id="gneE11_7" index="7" allow="pedestrian" speed="13.89" length="20.00" width="6.60" shape="-11.33,190.00 -11.33,210.00"/>
    </edge>
    <edge id="gneE7" from="gneJ7" to="gneJ8" priority="1">
        <lane id="gneE7_0" index="0" allow="pedestrian" speed="13.89" length="45.21" width="6.60" shape="-16.13,72.84 -61.34,72.84"/>
        <lane id="gneE7_1" index="1" speed="13.89" length="45.21" width="2.25" shape="-16.13,68.32 -61.34,68.32"/>
        <lane id="gneE7_2" index="2" allow="passenger" speed="13.89" length="45.21" width="2.25" shape="-16.13,65.97 -61.34,65.97"/>
    </edge>
    <edge id="gneE8" from="gneJ9" to="gneJ7" priority="1">
        <lane id="gneE8_0" index="0" allow="pedestrian" speed="13.89" length="43.34" width="6.60" shape="61.34,72.84 18.00,72.84"/>
        <lane id="gneE8_1" index="1" allow="passenger" speed="13.89" length="43.34" width="2.25" shape="61.34,68.32 18.00,68.32"/>
        <lane id="gneE8_2" index="2" allow="passenger" speed="13.89" length="43.34" width="2.25" shape="61.34,65.97 18.00,65.97"/>
    </edge>
    <edge id="gneE9.0" from="gneJ10" to="gneJ13" priority="1">
        <lane id="gneE9.0_0" index="0" allow="pedestrian" speed="13.89" length="15.00" width="6.60" shape="13.20,0.00 13.20,15.00"/>
        <lane id="gneE9.0_1" index="1" allow="bus bicycle" speed="13.89" length="15.00" width="3.14" shape="8.23,0.00 8.23,15.00"/>
        <lane id="gneE9.0_2" index="2" allow="passenger bicycle" speed="13.89" length="15.00" width="3.24" shape="4.94,0.00 4.94,15.00"/>
        <lane id="gneE9.0_3" index="3" allow="passenger bicycle" speed="13.89" length="15.00" width="2.78" shape="1.83,0.00 1.83,15.00"/>
        <lane id="gneE9.0_4" index="4" allow="passenger bicycle" speed="13.89" length="15.00" width="3.31" shape="-1.31,0.00 -1.31,15.00"/>
        <lane id="gneE9.0_5" index="5" allow="passenger bicycle" speed="13.89" length="15.00" width="2.76" shape="-4.45,0.00 -4.45,15.00"/>
        <lane id="gneE9.0_6" index="6" allow="bicycle" speed="13.89" length="15.00" width="2.00" shape="-6.93,0.00 -6.93,15.00"/>
        <lane id="gneE9.0_7" index="7" allow="pedestrian" speed="13.89" length="15.00" width="6.60" shape="-11.33,0.00 -11.33,15.00"/>
    </edge>
    <edge id="gneE9.25" from="gneJ13" to="gneJ14" priority="1">
        <lane id="gneE9.25_0" index="0" allow="pedestrian" speed="13.89" length="25.00" width="6.60" shape="13.20,15.00 13.20,40.00"/>
        <lane id="gneE9.25_1" index="1" allow="bus bicycle" speed="13.89" length="25.00" width="3.14" shape="8.23,15.00 8.23,40.00"/>
        <lane id="gneE9.25_2" index="2" disallow="all" speed="13.89" length="25.00" width="3.24" shape="4.94,15.00 4.94,40.00"/>
        <lane id="gneE9.25_3" index="3" disallow="all" speed="13.89" length="25.00" width="2.78" shape="1.83,15.00 1.83,40.00"/>
        <lane id="gneE9.25_4" index="4" allow="passenger bicycle" speed="13.89" length="25.00" width="3.31" shape="-1.32,15.00 -1.32,40.00"/>
        <lane id="gneE9.25_5" index="5" allow="passenger bicycle" speed="13.89" length="25.00" width="2.76" shape="-4.45,15.00 -4.45,40.00"/>
        <lane id="gneE9.25_6" index="6" allow="bicycle" speed="13.89" length="25.00" width="2.00" shape="-6.93,15.00 -6.93,40.00"/>
        <lane id="gneE9.25_7" index="7" allow="pedestrian" speed="13.89" length="25.00" width="6.60" shape="-11.33,15.00 -11.33,40.00"/>
    </edge>
    <edge id="gneE9.39" from="gneJ14" to="gneJ7" priority="1">
        <lane id="gneE9.39_0" index="0" allow="pedestrian" speed="13.89" length="11.94" width="6.60" shape="13.20,40.00 13.20,51.94"/>
        <lane id="gneE9.39_1" index="1" allow="bus bicycle" speed="13.89" length="11.94" width="3.14" shape="8.23,40.00 8.23,51.94"/>
        <lane id="gneE9.39_2" index="2" allow="passenger bicycle" speed="13.89" length="11.94" width="3.24" shape="4.94,40.00 4.94,51.94"/>
        <lane id="gneE9.39_3" index="3" allow="passenger bicycle" speed="13.89" length="11.94" width="2.78" shape="1.83,40.00 1.83,51.94"/>
        <lane id="gneE9.39_4" index="4" allow="passenger bicycle" speed="13.89" length="11.94" width="3.31" shape="-1.31,40.00 -1.31,51.94"/>
        <lane id="gneE9.39_5" index="5" allow="passenger bicycle" speed="13.89" length="11.94" width="2.76" shape="-4.45,40.00 -4.45,51.94"/>
        <lane id="gneE9.39_6" index="6" allow="bicycle" speed="13.89" length="11.94" width="2.00" shape="-6.93,40.00 -6.93,51.94"/>
        <lane id="gneE9.39_7" index="7" allow="pedestrian" speed="13.89" length="11.94" width="6.60" shape="-11.33,40.00 -11.33,51.94"/>
    </edge>

    <tlLogic id="gneJ11" type="static" programID="0" offset="0">
        <phase duration="82" state="GGGGGG"/>
        <phase duration="3" state="yyyyyy"/>
        <phase duration="5" state="rrrrrr"/>
    </tlLogic>
    <tlLogic id="gneJ7" type="static" programID="0" offset="0">
        <phase duration="28" state="gggGggGrrrrrrrrrrGgggGggGrGr"/>
        <phase duration="5" state="gggGggGrrrrrrrrrrGgggGggrrrr"/>
        <phase duration="3" state="yyyyyyyrrrrrrrrrryyyyyggrrrr"/>
        <phase duration="6" state="rrrrrrrrrrrrrrrrrrrrrrGGrrrr"/>
        <phase duration="3" state="rrrrrrrrrrrrrrrrrrrrrryyrrrr"/>
        <phase duration="28" state="rrrrrrrgGgGGGGgGgrrrrrrrrGrG"/>
        <phase duration="5" state="rrrrrrrgGgGGGGgGgrrrrrrrrrrr"/>
        <phase duration="3" state="rrrrrrryyyyyyyyyyrrrrrrrrrrr"/>
        <phase duration="9" state="rrrrrrrrrrrrrrrrrrrrrrrrrrrr"/>
    </tlLogic>

    <junction id="gneJ10" type="dead_end" x="-14.68" y="0.00" incLanes="" intLanes="" shape="-14.63,0.00 16.50,0.00"/>
    <junction id="gneJ11" type="traffic_light" x="-14.68" y="190.00" incLanes="gneE10.91_0 gneE10.91_1 gneE10.91_2 gneE10.91_3 gneE10.91_4 gneE10.91_5 gneE10.91_6 gneE10.91_7" intLanes=":gneJ11_0_0 :gneJ11_0_1 :gneJ11_0_2 :gneJ11_0_3 :gneJ11_0_4 :gneJ11_0_5" shape="-14.63,190.00 16.50,190.00 -14.63,190.00">
        <request index="0" response="000000" foes="000000" cont="0"/>
        <request index="1" response="000000" foes="000000" cont="0"/>
        <request index="2" response="000000" foes="000000" cont="0"/>
        <request index="3" response="000000" foes="000000" cont="0"/>
        <request index="4" response="000000" foes="000000" cont="0"/>
        <request index="5" response="000000" foes="000000" cont="0"/>
    </junction>
    <junction id="gneJ12" type="dead_end" x="-14.68" y="210.00" incLanes="gneE11_0 gneE11_1 gneE11_2 gneE11_3 gneE11_4 gneE11_5 gneE11_6 gneE11_7" intLanes="" shape="16.50,210.00 -14.63,210.00"/>
    <junction id="gneJ13" type="priority" x="-14.68" y="15.00" incLanes="gneE9.0_0 gneE9.0_1 gneE9.0_2 gneE9.0_3 gneE9.0_4 gneE9.0_5 gneE9.0_6 gneE9.0_7" intLanes=":gneJ13_0_0 :gneJ13_0_1 :gneJ13_0_2 :gneJ13_0_3" shape="-14.63,15.00 16.50,15.00 -14.63,15.00">
        <request index="0" response="0000" foes="0000" cont="0"/>
        <request index="1" response="0000" foes="0000" cont="0"/>
        <request index="2" response="0000" foes="0000" cont="0"/>
        <request index="3" response="0000" foes="0000" cont="0"/>
    </junction>
    <junction id="gneJ14" type="priority" x="-14.68" y="40.00" incLanes="gneE9.25_0 gneE9.25_1 gneE9.25_2 gneE9.25_3 gneE9.25_4 gneE9.25_5 gneE9.25_6 gneE9.25_7" intLanes=":gneJ14_0_0 :gneJ14_0_1 :gneJ14_0_2 :gneJ14_0_3" shape="-14.63,40.00 16.50,40.00 -14.63,40.00">
        <request index="0" response="0000" foes="0000" cont="0"/>
        <request index="1" response="0000" foes="0000" cont="0"/>
        <request index="2" response="0000" foes="0000" cont="0"/>
        <request index="3" response="0000" foes="0000" cont="0"/>
    </junction>