<?xml version="1.0" encoding="UTF-8"?>

<!-- generated on Sun Sep  9 18:07:23 2018 by Netedit Version 0.32.0
<?xml version="1.0" encoding="UTF-8"?>

<configuration xmlns:xsi="http://www.w3.org/2001/XMLSchema-instance" xsi:noNamespaceSchemaLocation="http://sumo.dlr.de/xsd/netconvertConfiguration.xsd">

    <input>
        <sumo-net-file value="city_cross_4lanes_002.net.xml"/>
    </input>

    <output>
        <output-file value="city_cross_4lanes_002.net.xml"/>
    </output>

    <processing>
        <no-internal-links value="false"/>
        <no-turnarounds value="true"/>
        <offset.disable-normalization value="true"/>
        <lefthand value="false"/>
        <junctions.corner-detail value="0"/>
        <rectangular-lane-cut value="false"/>
        <walkingareas value="false"/>
    </processing>

</configuration>
-->

<net version="0.27" xmlns:xsi="http://www.w3.org/2001/XMLSchema-instance" xsi:noNamespaceSchemaLocation="http://sumo.dlr.de/xsd/net_file.xsd">

    <location netOffset="0.00,0.00" convBoundary="-68.70,0.00,68.70,232.96" origBoundary="-10000000000.00,-10000000000.00,10000000000.00,10000000000.00" projParameter="!"/>

    <edge id=":gneJ0_w0" function="walkingarea">
        <lane id=":gneJ0_w0_0" index="0" allow="pedestrian" speed="1.00" length="21.11" width="3.20" shape="8.83,0.00 12.03,0.00 -12.28,0.00 -9.08,0.00"/>
    </edge>
    <edge id=":gneJ1_0" function="internal">
        <lane id=":gneJ1_0_0" index="0" allow="pedestrian" speed="13.89" length="6.77" shape="-10.43,139.08 -10.61,136.71 -11.14,135.02 -12.02,134.01 -13.25,133.67"/>
    </edge>
    <edge id=":gneJ1_1" function="internal">
        <lane id=":gneJ1_1_0" index="0" allow="pedestrian" speed="13.89" length="29.32" shape="-10.43,139.08 -10.68,109.76"/>
        <lane id=":gneJ1_1_1" index="1" allow="bicycle" speed="13.89" length="29.32" width="2.58" shape="-7.44,139.08 -7.69,109.76"/>
    </edge>
    <edge id=":gneJ1_3" function="internal">
        <lane id=":gneJ1_3_0" index="0" allow="bicycle" speed="13.89" length="17.85" width="2.59" shape="-7.44,139.08 -7.81,128.80 -8.93,121.45 -8.98,121.33"/>
    </edge>
    <edge id=":gneJ1_4" function="internal">
        <lane id=":gneJ1_4_0" index="0" disallow="bicycle pedestrian" speed="13.89" length="7.00" width="3.14" shape="-4.58,143.08 -4.58,139.08 -4.89,136.10"/>
    </edge>
    <edge id=":gneJ1_5" function="internal">
        <lane id=":gneJ1_5_0" index="0" disallow="bicycle pedestrian" speed="13.89" length="7.88" width="3.14" shape="-4.58,143.08 -4.58,139.08 -4.89,135.21"/>
    </edge>
    <edge id=":gneJ1_6" function="internal">
        <lane id=":gneJ1_6_0" index="0" disallow="bicycle pedestrian" speed="13.89" length="33.32" width="2.95" shape="-4.58,143.08 -4.58,139.08 -4.83,109.76"/>
    </edge>
    <edge id=":gneJ1_7" function="internal">
        <lane id=":gneJ1_7_0" index="0" allow="bus" speed="13.89" length="6.14" shape="-4.58,143.08 -4.58,139.08 -4.88,136.96"/>
    </edge>
    <edge id=":gneJ1_8" function="internal">
        <lane id=":gneJ1_8_0" index="0" disallow="bicycle pedestrian" speed="13.89" length="14.69" width="3.14" shape="-1.53,143.08 -1.53,139.08 -2.26,131.00 -3.19,128.60"/>
    </edge>
    <edge id=":gneJ1_9" function="internal">
        <lane id=":gneJ1_9_0" index="0" disallow="bicycle pedestrian" speed="13.89" length="16.20" width="1.98" shape="-1.53,143.08 -1.53,139.08 -2.27,129.84 -3.20,127.06"/>
    </edge>
    <edge id=":gneJ1_10" function="internal">
        <lane id=":gneJ1_10_0" index="0" disallow="bicycle pedestrian" speed="13.89" length="33.32" shape="-1.53,143.08 -1.53,139.08 -1.65,109.76"/>
    </edge>
    <edge id=":gneJ1_36" function="internal">
        <lane id=":gneJ1_36_0" index="0" speed="13.89" length="7.65" width="2.59" shape="-8.98,121.33 -10.79,117.04 -13.40,115.58"/>
    </edge>
    <edge id=":gneJ1_37" function="internal">
        <lane id=":gneJ1_37_0" index="0" speed="13.89" length="13.79" width="3.14" shape="-4.89,136.10 -5.12,133.84 -6.76,130.09 -9.49,127.85 -13.31,127.10"/>
    </edge>
    <edge id=":gneJ1_38" function="internal">
        <lane id=":gneJ1_38_0" index="0" speed="13.89" length="15.74" width="3.14" shape="-4.89,135.21 -5.12,132.42 -6.76,127.67 -9.50,124.81 -13.33,123.86"/>
    </edge>
    <edge id=":gneJ1_39" function="internal">
        <lane id=":gneJ1_39_0" index="0" speed="13.89" length="11.90" shape="-4.88,136.96 -5.12,135.27 -6.75,132.55 -9.47,130.91 -13.28,130.37"/>
    </edge>
    <edge id=":gneJ1_40" function="internal">
        <lane id=":gneJ1_40_0" index="0" speed="13.89" length="13.98" width="3.14" shape="-3.19,128.60 -4.48,125.24 -8.18,121.77 -13.36,120.62"/>
    </edge>
    <edge id=":gneJ1_41" function="internal">
        <lane id=":gneJ1_41_0" index="0" speed="13.89" length="14.81" width="1.98" shape="-3.20,127.06 -4.49,123.24 -8.19,119.28 -13.38,117.96"/>
    </edge>
    <edge id=":gneJ1_11" function="internal">
        <lane id=":gneJ1_11_0" index="0" allow="pedestrian" speed="13.89" length="6.15" shape="12.26,133.42 11.62,133.78 11.17,134.84 10.89,136.61 10.80,139.08"/>
    </edge>
    <edge id=":gneJ1_12" function="internal">
        <lane id=":gneJ1_12_0" index="0" allow="pedestrian" speed="13.89" length="28.33" shape="12.26,133.42 -13.25,133.67"/>
        <lane id=":gneJ1_12_1" index="1" allow="bus" speed="13.89" length="28.33" shape="16.38,130.13 12.38,130.17 -13.28,130.37"/>
        <lane id=":gneJ1_12_2" index="2" disallow="bicycle pedestrian" speed="13.89" length="28.33" width="3.14" shape="16.50,126.91 12.50,126.95 -13.31,127.10"/>
    </edge>
    <edge id=":gneJ1_15" function="internal">
        <lane id=":gneJ1_15_0" index="0" disallow="bicycle pedestrian" speed="13.89" length="8.84" width="2.95" shape="16.50,126.91 12.50,126.95 9.04,127.73 8.09,128.60"/>
    </edge>
    <edge id=":gneJ1_16" function="internal">
        <lane id=":gneJ1_16_0" index="0" disallow="bicycle pedestrian" speed="13.89" length="9.98" width="2.95" shape="16.54,123.70 12.54,123.73 7.72,124.73 6.91,125.41"/>
    </edge>
    <edge id=":gneJ1_17" function="internal">
        <lane id=":gneJ1_17_0" index="0" disallow="bicycle pedestrian" speed="13.89" length="29.89" width="3.14" shape="16.54,123.70 12.54,123.73 -13.33,123.86"/>
        <lane id=":gneJ1_17_1" index="1" disallow="bicycle pedestrian" speed="13.89" length="29.89" width="3.14" shape="16.53,120.47 12.53,120.50 -13.36,120.62"/>
    </edge>
    <edge id=":gneJ1_19" function="internal">
        <lane id=":gneJ1_19_0" index="0" disallow="bicycle pedestrian" speed="13.89" length="22.87" width="2.95" shape="16.53,120.47 12.53,120.50 4.94,119.89 -0.49,117.90 -3.74,114.52 -3.91,113.76"/>
    </edge>
    <edge id=":gneJ1_20" function="internal">
        <lane id=":gneJ1_20_0" index="0" disallow="bicycle pedestrian" speed="13.89" length="17.96" shape="16.52,117.79 12.52,117.83 6.32,117.37 1.89,115.88 -0.32,113.76"/>
    </edge>
    <edge id=":gneJ1_21" function="internal">
        <lane id=":gneJ1_21_0" index="0" disallow="bicycle pedestrian" speed="13.89" length="29.91" width="1.98" shape="16.52,117.79 12.52,117.83 -13.38,117.96"/>
    </edge>
    <edge id=":gneJ1_22" function="internal">
        <lane id=":gneJ1_22_0" index="0" allow="bicycle" speed="13.89" length="2.45" width="2.95" shape="12.52,115.44 10.50,116.85"/>
    </edge>
    <edge id=":gneJ1_23" function="internal">
        <lane id=":gneJ1_23_0" index="0" allow="bicycle" speed="13.89" length="16.07" width="2.58" shape="12.52,115.44 3.68,115.16 -2.64,114.12 -3.39,113.76"/>
    </edge>
    <edge id=":gneJ1_24" function="internal">
        <lane id=":gneJ1_24_0" index="0" allow="bicycle" speed="13.89" length="25.93" width="2.59" shape="12.52,115.44 -13.40,115.58"/>
        <lane id=":gneJ1_24_1" index="1" allow="pedestrian" speed="13.89" length="25.93" shape="12.51,112.45 -13.43,112.58"/>
    </edge>
    <edge id=":gneJ1_42" function="internal">
        <lane id=":gneJ1_42_0" index="0" speed="13.89" length="11.45" width="2.95" shape="8.09,128.60 6.56,130.02 5.07,133.80 4.58,139.08"/>
    </edge>
    <edge id=":gneJ1_43" function="internal">
        <lane id=":gneJ1_43_0" index="0" speed="13.89" length="15.36" width="2.95" shape="6.91,125.41 4.28,127.62 2.21,132.40 1.53,139.08"/>
    </edge>
    <edge id=":gneJ1_44" function="internal">
        <lane id=":gneJ1_44_0" index="0" speed="13.89" length="4.10" width="2.95" shape="-3.91,113.76 -4.83,109.76"/>
    </edge>
    <edge id=":gneJ1_45" function="internal">
        <lane id=":gneJ1_45_0" index="0" speed="13.89" length="4.30" shape="-0.32,113.76 -0.76,113.34 -1.65,109.76"/>
    </edge>
    <edge id=":gneJ1_46" function="internal">
        <lane id=":gneJ1_46_0" index="0" speed="13.89" length="22.62" width="2.95" shape="10.50,116.85 10.38,116.94 8.85,121.38 7.93,128.76 7.63,139.08"/>
    </edge>
    <edge id=":gneJ1_47" function="internal">
        <lane id=":gneJ1_47_0" index="0" speed="13.89" length="6.22" width="2.58" shape="-3.39,113.76 -6.43,112.32 -7.69,109.76"/>
    </edge>
    <edge id=":gneJ1_26" function="internal">
        <lane id=":gneJ1_26_0" index="0" allow="pedestrian" speed="13.89" length="29.32" shape="10.42,109.76 10.80,139.08"/>
        <lane id=":gneJ1_26_1" index="1" allow="bicycle" speed="13.89" length="29.32" width="2.95" shape="7.43,109.76 7.63,139.08"/>
    </edge>
    <edge id=":gneJ1_28" function="internal">
        <lane id=":gneJ1_28_0" index="0" allow="bicycle" speed="13.89" length="9.45" width="2.59" shape="7.43,109.76 6.13,112.30 2.22,114.12 -0.03,114.50"/>
    </edge>
    <edge id=":gneJ1_29" function="internal">
        <lane id=":gneJ1_29_0" index="0" disallow="bicycle pedestrian" speed="13.89" length="33.32" width="2.95" shape="4.57,105.76 4.57,109.76 4.58,139.08"/>
    </edge>
    <edge id=":gneJ1_30" function="internal">
        <lane id=":gneJ1_30_0" index="0" allow="bus" speed="13.89" length="14.58" shape="1.52,105.76 1.52,109.76 0.59,118.78 -0.01,120.16"/>
    </edge>
    <edge id=":gneJ1_31" function="internal">
        <lane id=":gneJ1_31_0" index="0" disallow="bicycle pedestrian" speed="13.89" length="33.32" width="2.95" shape="1.52,105.76 1.52,109.76 1.53,139.08"/>
    </edge>
    <edge id=":gneJ1_32" function="internal">
        <lane id=":gneJ1_32_0" index="0" disallow="bicycle pedestrian" speed="13.89" length="12.96" width="3.14" shape="1.52,105.76 1.52,109.76 0.59,117.35 -0.01,118.52"/>
    </edge>
    <edge id=":gneJ1_33" function="internal">
        <lane id=":gneJ1_33_0" index="0" disallow="bicycle pedestrian" speed="13.89" length="11.38" width="3.14" shape="1.52,105.76 1.52,109.76 0.59,115.93 -0.02,116.89"/>
    </edge>
    <edge id=":gneJ1_34" function="internal">
        <lane id=":gneJ1_34_0" index="0" disallow="bicycle pedestrian" speed="13.89" length="9.81" width="3.14" shape="1.52,105.76 1.52,109.76 0.59,114.51 -0.03,115.26"/>
    </edge>
    <edge id=":gneJ1_35" function="internal">
        <lane id=":gneJ1_35_0" index="0" disallow="bicycle pedestrian" speed="13.89" length="8.55" width="1.98" shape="1.52,105.76 1.52,109.76 0.59,113.35 -0.03,113.91"/>
    </edge>
    <edge id=":gneJ1_48" function="internal">
        <lane id=":gneJ1_48_0" index="0" speed="13.89" length="13.44" width="2.59" shape="-0.03,114.50 -4.29,115.21 -13.40,115.58"/>
    </edge>
    <edge id=":gneJ1_49" function="internal">
        <lane id=":gneJ1_49_0" index="0" speed="13.89" length="18.13" shape="-0.01,120.16 -2.18,125.22 -6.81,129.08 -13.28,130.37"/>
    </edge>
    <edge id=":gneJ1_50" function="internal">
        <lane id=":gneJ1_50_0" index="0" speed="13.89" length="17.00" width="3.14" shape="-0.01,118.52 -2.19,122.77 -6.82,126.02 -13.31,127.10"/>
    </edge>
    <edge id=":gneJ1_51" function="internal">
        <lane id=":gneJ1_51_0" index="0" speed="13.89" length="15.97" width="3.14" shape="-0.02,116.89 -2.20,120.34 -6.84,122.98 -13.33,123.86"/>
    </edge>
    <edge id=":gneJ1_52" function="internal">
        <lane id=":gneJ1_52_0" index="0" speed="13.89" length="15.05" width="3.14" shape="-0.03,115.26 -2.20,117.91 -6.85,119.94 -13.36,120.62"/>
    </edge>
    <edge id=":gneJ1_53" function="internal">
        <lane id=":gneJ1_53_0" index="0" speed="13.89" length="14.39" width="1.98" shape="-0.03,113.91 -2.21,115.91 -6.86,117.45 -13.38,117.96"/>
    </edge>
    <edge id=":gneJ1_c0" function="crossing" crossingEdges="gneE1 -gneE1">
        <lane id=":gneJ1_c0_0" index="0" allow="pedestrian" speed="1.00" length="17.83" width="4.00" shape="9.10,137.08 -8.73,137.08"/>
    </edge>
    <edge id=":gneJ1_c1" function="crossing" crossingEdges="gneE2">
        <lane id=":gneJ1_c1_0" index="0" allow="pedestrian" speed="1.00" length="17.57" width="4.00" shape="10.50,114.17 10.40,131.74"/>
    </edge>
    <edge id=":gneJ1_c2" function="crossing" crossingEdges="-gneE0 gneE0">
        <lane id=":gneJ1_c2_0" index="0" allow="pedestrian" speed="1.00" length="17.70" width="4.00" shape="-8.98,111.76 8.72,111.76"/>
    </edge>
    <edge id=":gneJ1_c3" function="crossing" crossingEdges="gneE3">
        <lane id=":gneJ1_c3_0" index="0" allow="pedestrian" speed="1.00" length="17.69" width="4.00" shape="-11.28,131.97 -11.40,114.28"/>
    </edge>
    <edge id=":gneJ1_w0" function="walkingarea">
        <lane id=":gneJ1_w0_0" index="0" allow="pedestrian" speed="1.00" length="4.98" width="4.00" shape="-9.28,131.96 -13.25,132.07 -13.25,135.27 -12.03,139.08 -8.83,139.08 -8.73,139.08 -8.73,135.08"/>
    </edge>
    <edge id=":gneJ1_w1" function="walkingarea">
        <lane id=":gneJ1_w1_0" index="0" allow="pedestrian" speed="1.00" length="0.10" width="2.95" shape="-6.05,139.08 -3.10,139.08 -3.00,139.08 -0.05,139.08"/>
    </edge>
    <edge id=":gneJ1_w2" function="walkingarea">
        <lane id=":gneJ1_w2_0" index="0" allow="pedestrian" speed="1.00" length="4.78" width="4.00" shape="9.10,135.08 9.20,139.08 12.40,139.08 12.28,135.02 12.25,131.82 12.40,131.75 8.40,131.73"/>
    </edge>
    <edge id=":gneJ1_w3" function="walkingarea">
        <lane id=":gneJ1_w3_0" index="0" allow="pedestrian" speed="1.00" length="12.51" width="4.00" shape="8.50,114.15 12.50,114.18 12.52,114.05 12.49,110.85 12.02,109.76 8.82,109.76 8.72,109.76 8.72,113.76"/>
    </edge>
    <edge id=":gneJ1_w4" function="walkingarea">
        <lane id=":gneJ1_w4_0" index="0" allow="pedestrian" speed="1.00" length="12.76" width="4.00" shape="-8.98,113.76 -8.98,109.76 -9.08,109.76 -12.28,109.76 -13.43,110.98 -13.43,114.18 -13.40,114.29 -9.40,114.27"/>
    </edge>
    <edge id=":gneJ2_w0" function="walkingarea">
        <lane id=":gneJ2_w0_0" index="0" allow="pedestrian" speed="1.00" length="0.10" width="2.95" shape="-0.05,232.96 -3.00,232.96 -3.10,232.96 -6.05,232.96"/>
    </edge>
    <edge id=":gneJ2_w1" function="walkingarea">
        <lane id=":gneJ2_w1_0" index="0" allow="pedestrian" speed="1.00" length="21.23" width="3.20" shape="-8.83,232.96 -12.03,232.96 12.40,232.96 9.20,232.96"/>
    </edge>
    <edge id=":gneJ3_w0" function="walkingarea">
        <lane id=":gneJ3_w0_0" index="0" allow="pedestrian" speed="1.00" length="0.10" width="3.20" shape="68.89,131.29 68.92,134.49 68.69,110.32 68.72,113.52"/>
    </edge>
    <edge id=":gneJ4_w0" function="walkingarea">
        <lane id=":gneJ4_w0_0" index="0" allow="pedestrian" speed="1.00" length="0.10" width="3.20" shape="-68.70,114.18 -68.70,110.98 -68.70,135.27 -68.70,132.07"/>
    </edge>

    <edge id="-gneE0" from="gneJ1" to="gneJ0" priority="1">
        <lane id="-gneE0_0" index="0" allow="pedestrian" speed="13.89" length="109.76" shape="-10.68,109.76 -10.68,0.00"/>
        <lane id="-gneE0_1" index="1" allow="bicycle" speed="13.89" length="109.76" width="2.58" shape="-7.69,109.76 -7.69,0.00"/>
        <lane id="-gneE0_2" index="2" disallow="bicycle pedestrian" speed="13.89" length="109.76" width="2.95" shape="-4.83,109.76 -4.83,0.00"/>
        <lane id="-gneE0_3" index="3" disallow="bicycle pedestrian" speed="13.89" length="109.76" shape="-1.65,109.76 -1.65,0.00"/>
    </edge>
    <edge id="-gneE1" from="gneJ2" to="gneJ1" priority="1">
        <lane id="-gneE1_0" index="0" allow="pedestrian" speed="13.89" length="93.88" shape="-10.43,232.96 -10.43,139.08"/>
        <lane id="-gneE1_1" index="1" allow="bicycle" speed="13.89" length="93.88" width="2.58" shape="-7.44,232.96 -7.44,139.08"/>
        <lane id="-gneE1_2" index="2" speed="13.89" length="89.88" endOffset="4.00" width="2.95" shape="-4.58,232.96 -4.58,143.08"/>
        <lane id="-gneE1_3" index="3" speed="13.89" length="89.88" endOffset="4.00" width="2.95" shape="-1.53,232.96 -1.53,143.08"/>
    </edge>
    <edge id="gneE0" from="gneJ0" to="gneJ1" priority="1" spreadType="center" shape="6.04,0.00 6.03,111.23">
        <lane id="gneE0_0" index="0" allow="pedestrian" speed="13.89" length="109.76" shape="10.43,0.00 10.42,109.76"/>
        <lane id="gneE0_1" index="1" allow="bicycle" speed="13.89" length="109.76" width="2.58" shape="7.44,0.00 7.43,109.76"/>
        <lane id="gneE0_2" index="2" disallow="bicycle pedestrian" speed="13.89" length="105.76" endOffset="4.00" width="2.95" shape="4.58,-0.00 4.57,105.76"/>
        <lane id="gneE0_3" index="3" disallow="bicycle pedestrian" speed="13.89" length="105.76" endOffset="4.00" width="2.95" shape="1.53,-0.00 1.52,105.76"/>
    </edge>
    <edge id="gneE1" from="gneJ1" to="gneJ2" priority="4">
        <lane id="gneE1_0" index="0" allow="pedestrian" speed="13.89" length="93.88" shape="10.80,139.08 10.80,232.96"/>
        <lane id="gneE1_1" index="1" allow="bicycle" speed="13.89" length="93.88" width="2.95" shape="7.63,139.08 7.63,232.96"/>
        <lane id="gneE1_2" index="2" disallow="bicycle pedestrian" speed="13.89" length="93.88" width="2.95" shape="4.58,139.08 4.58,232.96"/>
        <lane id="gneE1_3" index="3" disallow="bicycle pedestrian" speed="13.89" length="93.88" width="2.95" shape="1.53,139.08 1.53,232.96"/>
    </edge>
    <edge id="gneE2" from="gneJ3" to="gneJ1" priority="1" spreadType="center" shape="68.70,122.41 0.00,123.05">
        <lane id="gneE2_0" index="0" allow="pedestrian" speed="13.89" length="56.33" shape="68.90,132.89 12.26,133.42"/>
        <lane id="gneE2_1" index="1" allow="bus" speed="13.89" length="52.33" endOffset="4.00" width="3.10" shape="68.87,129.64 16.38,130.13"/>
        <lane id="gneE2_2" index="2" disallow="bicycle pedestrian" speed="13.89" length="52.33" endOffset="4.00" width="3.14" shape="68.84,126.42 16.50,126.91"/>
        <lane id="gneE2_3" index="3" disallow="bicycle pedestrian" speed="13.89" length="52.33" endOffset="4.00" width="3.09" shape="68.81,123.21 16.54,123.70"/>
        <lane id="gneE2_4" index="4" disallow="bicycle pedestrian" speed="13.89" length="52.33" endOffset="4.00" width="3.17" shape="68.78,119.98 16.53,120.47"/>
        <lane id="gneE2_5" index="5" disallow="bicycle pedestrian" speed="13.89" length="52.33" endOffset="4.00" width="1.98" shape="68.76,117.30 16.52,117.79"/>
        <lane id="gneE2_6" index="6" allow="bicycle" speed="13.89" length="56.33" width="2.59" shape="68.74,114.92 12.52,115.44"/>
        <lane id="gneE2_7" index="7" allow="pedestrian" speed="13.89" length="56.33" shape="68.71,111.92 12.51,112.45"/>
    </edge>
    <edge id="gneE3" from="gneJ1" to="gneJ4" priority="1">
        <lane id="gneE3_0" index="0" allow="pedestrian" speed="13.89" length="55.36" shape="-13.25,133.67 -68.70,133.67"/>
        <lane id="gneE3_1" index="1" allow="bus" speed="13.89" length="55.36" shape="-13.28,130.37 -68.70,130.37"/>
        <lane id="gneE3_2" index="2" disallow="bicycle pedestrian" speed="13.89" length="55.36" width="3.14" shape="-13.31,127.10 -68.70,127.10"/>
        <lane id="gneE3_3" index="3" disallow="bicycle pedestrian" speed="13.89" length="55.36" width="3.14" shape="-13.33,123.86 -68.70,123.86"/>
        <lane id="gneE3_4" index="4" disallow="bicycle pedestrian" speed="13.89" length="55.36" width="3.14" shape="-13.36,120.62 -68.70,120.62"/>
        <lane id="gneE3_5" index="5" disallow="bicycle pedestrian" speed="13.89" length="55.36" width="1.98" shape="-13.38,117.96 -68.70,117.96"/>
        <lane id="gneE3_6" index="6" allow="bicycle" speed="13.89" length="55.36" width="2.59" shape="-13.40,115.58 -68.70,115.58"/>
        <lane id="gneE3_7" index="7" allow="pedestrian" speed="13.89" length="55.36" shape="-13.43,112.58 -68.70,112.58"/>
    </edge>

    <tlLogic id="gneJ1" type="static" programID="0" offset="0">
        <phase duration="28" state="gGgGgggGggGrrrrrrrrrrrrrrrGGgGGgggggrGrG"/>
        <phase duration="5" state="gGgGgggGggGrrrrrrrrrrrrrrrGGgGGgggggrrrr"/>
        <phase duration="3" state="yyyyyyyyyyyrrrrrrrrrrrrrrryyyyygggggrrrr"/>
        <phase duration="6" state="rrrrrrrrrrrrrrrrrrrrrrrrrrrrrrrGGGGGrrrr"/>
        <phase duration="3" state="rrrrrrrrrrrrrrrrrrrrrrrrrrrrrrryyyyyrrrr"/>
        <phase duration="28" state="rrrrrrrrrrrgGGgGgGGgGggGgGrrrrrrrrrrGrGr"/>
        <phase duration="5" state="rrrrrrrrrrrgGGgGgGGgGggGgGrrrrrrrrrrrrrr"/>
        <phase duration="3" state="rrrrrrrrrrryyyyyyyyyyyyyyyrrrrrrrrrrrrrr"/>
        <phase duration="9" state="rrrrrrrrrrrrrrrrrrrrrrrrrrrrrrrrrrrrrrrr"/>
    </tlLogic>

    <junction id="gneJ0" type="dead_end" x="0.00" y="0.00" incLanes="-gneE0_0 -gneE0_1 -gneE0_2 -gneE0_3" intLanes="" shape="0.05,0.00 -12.28,-0.00 -0.05,-0.00"/>
    <junction id="gneJ1" type="traffic_light" x="0.00" y="110.93" incLanes="-gneE1_0 -gneE1_1 -gneE1_2 -gneE1_3 gneE2_0 gneE2_1 gneE2_2 gneE2_3 gneE2_4 gneE2_5 gneE2_6 gneE2_7 gneE0_0 gneE0_1 gneE0_2 gneE0_3 :gneJ1_w2_0 :gneJ1_w3_0 :gneJ1_w4_0 :gneJ1_w0_0" intLanes=":gneJ1_0_0 :gneJ1_1_0 :gneJ1_1_1 :gneJ1_36_0 :gneJ1_37_0 :gneJ1_38_0 :gneJ1_6_0 :gneJ1_39_0 :gneJ1_40_0 :gneJ1_41_0 :gneJ1_10_0 :gneJ1_11_0 :gneJ1_12_0 :gneJ1_12_1 :gneJ1_12_2 :gneJ1_42_0 :gneJ1_43_0 :gneJ1_17_0 :gneJ1_17_1 :gneJ1_44_0 :gneJ1_45_0 :gneJ1_21_0 :gneJ1_46_0 :gneJ1_47_0 :gneJ1_24_0 :gneJ1_24_1 :gneJ1_26_0 :gneJ1_26_1 :gneJ1_48_0 :gneJ1_29_0 :gneJ1_49_0 :gneJ1_31_0 :gneJ1_50_0 :gneJ1_51_0 :gneJ1_52_0 :gneJ1_53_0 :gneJ1_c0_0 :gneJ1_c1_0 :gneJ1_c2_0 :gneJ1_c3_0" shape="-11.69,139.08 12.05,139.08 12.55,125.74 12.50,110.80 11.69,109.76 -11.94,109.76 -13.44,111.01 -13.22,137.60" customShape="1">
        <request index="0" response="1001000000000011001001100111000000000000" foes="1001111101010011001001100111000000000000" cont="0"/>
        <request index="1" response="0101000000000011101111100111000000000000" foes="0101111101010011101111100111000000000000" cont="0"/>
        <request index="2" response="0101000000000011101111100111000000000000" foes="0101111101010011101111100111000000000000" cont="0"/>
        <request index="3" response="1001000000000011001001100111000000000010" foes="1001111101010011001001100111000000000010" cont="1"/>
        <request index="4" response="1001000000000011001001100111000000000110" foes="1001111101010011001001100111000000000110" cont="1"/>
        <request index="5" response="1001000000000011001001100111000000000110" foes="1001111101010011001001100111000000000110" cont="1"/>
        <request index="6" response="0101000000000011101111100111000000000000" foes="0101111101010011101111100111000000000000" cont="0"/>
        <request index="7" response="1001000000000011001001100111000000000110" foes="1001111101010011001001100111000000000110" cont="1"/>
        <request index="8" response="1001000000000011001001100111000001000110" foes="1001111101010011001001100111000001000110" cont="1"/>
        <request index="9" response="1001000000000011001001100111000001000110" foes="1001111101010011001001100111000001000110" cont="1"/>
        <request index="10" response="0101000000000011101111100111000000000000" foes="0101111101010011101111100111000000000000" cont="0"/>
        <request index="11" response="0001000000000000000000000000000000000000" foes="0011000010101100000000000000000000000000" cont="0"/>
        <request index="12" response="0000000000000000000000000000000000000000" foes="1010111111111100000000000000011111111111" cont="0"/>
        <request index="13" response="0000000000000000000000000000000000000000" foes="1010111111111100000000000000011111111111" cont="0"/>
        <request index="14" response="0000000000000000000000000000000000000000" foes="1010111111111100000000000000011111111111" cont="0"/>
        <request index="15" response="0001000000000000000000000011000000000000" foes="0011000010101100000000000011000000000000" cont="1"/>
        <request index="16" response="0001000000000000000000000111000000000000" foes="0011000010101100000000000111000000000000" cont="1"/>
        <request index="17" response="0000000000000000000000000000000000000000" foes="1010111111111100000000000000011111111111" cont="0"/>
        <request index="18" response="0000000000000000000000000000000000000000" foes="1010111111111100000000000000011111111111" cont="0"/>
        <request index="19" response="0100000000000011001000000000000000000000" foes="0110111111111111001000000000010001000110" cont="1"/>
        <request index="20" response="0100000000000011000000000000000000000000" foes="0110111111111111000000000000010001000110" cont="1"/>
        <request index="21" response="0000000000000000000000000000000000000000" foes="1010111111111100000000000000011111111111" cont="0"/>
        <request index="22" response="0001000000000000001111100111000000000000" foes="0011000010101100001111100111000000000000" cont="1"/>
        <request index="23" response="0100000000000010000000000000000000000000" foes="0110111111111110000000000000010001000110" cont="1"/>
        <request index="24" response="0000000000000000000000000000000000000000" foes="1010111111111100000000000000011111111111" cont="0"/>
        <request index="25" response="0000000000000000000000000000000000000000" foes="1010111111111100000000000000011111111111" cont="0"/>
        <request index="26" response="0101000000000011111111111111100000000000" foes="0101000000000011111111111111100000000000" cont="0"/>
        <request index="27" response="0101000000000011111111111111100000000000" foes="0101000000000011111111111111100000000000" cont="0"/>
        <request index="28" response="1100000010100011101111100111011111111111" foes="1100000010100011101111100111011111111111" cont="1"/>
        <request index="29" response="0101000000000011111111111111100000000000" foes="0101000000000011111111111111100000000000" cont="0"/>
        <request index="30" response="1100000000000011101111100111011111111111" foes="1100000000000011101111100111011111111111" cont="1"/>
        <request index="31" response="0101000000000011111111111111100000000000" foes="0101000000000011111111111111100000000000" cont="0"/>
        <request index="32" response="1100000000000011101111100111011111111111" foes="1100000000000011101111100111011111111111" cont="1"/>
        <request index="33" response="1100000000000011101111100111011111111111" foes="1100000000000011101111100111011111111111" cont="1"/>
        <request index="34" response="1100000000000011101111100111011111111111" foes="1100000000000011101111100111011111111111" cont="1"/>
        <request index="35" response="1100000000000011101111100111011111111111" foes="1100000000000011101111100111011111111111" cont="1"/>
        <request index="36" response="0000000000000000000000000000000000000000" foes="0000000010101100010000011000111111111111" cont="0"/>
        <request index="37" response="0000000000000011111111111111100000000000" foes="0000000000000011111111111111100000000000" cont="0"/>
        <request index="38" response="0000000000000000000000000000000000000000" foes="0000111111111100100110000000010001000110" cont="0"/>
        <request index="39" response="0000000000000011001001100111000000000000" foes="0000111101010011001001100111001110111001" cont="0"/>
    </junction>
    <junction id="gneJ2" type="dead_end" x="0.00" y="232.96" incLanes="gneE1_0 gneE1_1 gneE1_2 gneE1_3" intLanes="" shape="-0.05,232.96 12.40,232.96 0.05,232.96"/>
    <junction id="gneJ3" type="dead_end" x="68.70" y="110.93" incLanes="" intLanes="" shape="68.69,110.32 68.92,134.49"/>
    <junction id="gneJ4" type="dead_end" x="-68.70" y="110.93" incLanes="gneE3_0 gneE3_1 gneE3_2 gneE3_3 gneE3_4 gneE3_5 gneE3_6 gneE3_7" intLanes="" shape="-68.70,135.27 -68.70,110.98"/>

    <junction id=":gneJ1_36_0" type="internal" x="-8.98" y="121.33" incLanes=":gneJ1_3_0 -gneE1_0" intLanes=":gneJ1_1_0 :gneJ1_12_0 :gneJ1_12_1 :gneJ1_12_2 :gneJ1_17_0 :gneJ1_17_1 :gneJ1_21_0 :gneJ1_24_0 :gneJ1_24_1 :gneJ1_28_0 :gneJ1_30_0 :gneJ1_32_0 :gneJ1_33_0 :gneJ1_34_0 :gneJ1_35_0 :gneJ1_c0_0 :gneJ1_c3_0"/>
    <junction id=":gneJ1_37_0" type="internal" x="-4.89" y="136.10" incLanes=":gneJ1_4_0 -gneE1_0 -gneE1_1" intLanes=":gneJ1_1_0 :gneJ1_1_1 :gneJ1_12_0 :gneJ1_12_1 :gneJ1_12_2 :gneJ1_17_0 :gneJ1_17_1 :gneJ1_21_0 :gneJ1_24_0 :gneJ1_24_1 :gneJ1_28_0 :gneJ1_30_0 :gneJ1_32_0 :gneJ1_33_0 :gneJ1_34_0 :gneJ1_35_0 :gneJ1_c0_0 :gneJ1_c3_0"/>
    <junction id=":gneJ1_38_0" type="internal" x="-4.89" y="135.21" incLanes=":gneJ1_5_0 -gneE1_0 -gneE1_1" intLanes=":gneJ1_1_0 :gneJ1_1_1 :gneJ1_12_0 :gneJ1_12_1 :gneJ1_12_2 :gneJ1_17_0 :gneJ1_17_1 :gneJ1_21_0 :gneJ1_24_0 :gneJ1_24_1 :gneJ1_28_0 :gneJ1_30_0 :gneJ1_32_0 :gneJ1_33_0 :gneJ1_34_0 :gneJ1_35_0 :gneJ1_c0_0 :gneJ1_c3_0"/>
    <junction id=":gneJ1_39_0" type="internal" x="-4.88" y="136.96" incLanes=":gneJ1_7_0 -gneE1_0 -gneE1_1" intLanes=":gneJ1_1_0 :gneJ1_1_1 :gneJ1_12_0 :gneJ1_12_1 :gneJ1_12_2 :gneJ1_17_0 :gneJ1_17_1 :gneJ1_21_0 :gneJ1_24_0 :gneJ1_24_1 :gneJ1_28_0 :gneJ1_30_0 :gneJ1_32_0 :gneJ1_33_0 :gneJ1_34_0 :gneJ1_35_0 :gneJ1_c0_0 :gneJ1_c3_0"/>
    <junction id=":gneJ1_40_0" type="internal" x="-3.19" y="128.60" incLanes=":gneJ1_8_0 -gneE1_0 -gneE1_1 -gneE1_2" intLanes=":gneJ1_1_0 :gneJ1_1_1 :gneJ1_6_0 :gneJ1_12_0 :gneJ1_12_1 :gneJ1_12_2 :gneJ1_17_0 :gneJ1_17_1 :gneJ1_21_0 :gneJ1_24_0 :gneJ1_24_1 :gneJ1_28_0 :gneJ1_30_0 :gneJ1_32_0 :gneJ1_33_0 :gneJ1_34_0 :gneJ1_35_0 :gneJ1_c0_0 :gneJ1_c3_0"/>