<?xml version="1.0" encoding="UTF-8"?>

<!-- generated on Wed Sep 26 15:10:56 2018 by Netedit Version 0.32.0
<?xml version="1.0" encoding="UTF-8"?>

<configuration xmlns:xsi="http://www.w3.org/2001/XMLSchema-instance" xsi:noNamespaceSchemaLocation="http://sumo.dlr.de/xsd/netconvertConfiguration.xsd">

    <input>
        <sumo-net-file value="city_curve_6lanes.net.xml"/>
    </input>

    <output>
        <output-file value="city_curve_6lanes.net.xml"/>
    </output>

    <processing>
        <no-turnarounds value="true"/>
        <offset.disable-normalization value="true"/>
        <lefthand value="false"/>
        <junctions.corner-detail value="0"/>
        <rectangular-lane-cut value="false"/>
        <walkingareas value="false"/>
    </processing>

</configuration>
-->

<net version="0.27" xmlns:xsi="http://www.w3.org/2001/XMLSchema-instance" xsi:noNamespaceSchemaLocation="http://sumo.dlr.de/xsd/net_file.xsd">

    <location netOffset="0.00,0.00" convBoundary="0.00,0.00,187.44,190.37" origBoundary="-10000000000.00,-10000000000.00,10000000000.00,10000000000.00" projParameter="!"/>

    <edge id=":gneJ10_0" function="internal">
        <lane id=":gneJ10_0_0" index="0" allow="pedestrian" speed="13.89" length="6.18" width="4.00" shape="98.14,188.76 96.01,188.04 94.58,187.47 93.21,186.75 91.29,185.60"/>
        <lane id=":gneJ10_0_1" index="1" allow="bicycle" speed="13.89" length="6.18" width="3.40" shape="99.33,185.15 97.44,184.51 96.18,184.00 94.97,183.37 93.26,182.35"/>
        <lane id=":gneJ10_0_2" index="2" disallow="bicycle pedestrian" speed="13.89" length="6.18" width="4.50" shape="100.60,181.30 98.97,180.75 97.88,180.31 96.83,179.77 95.36,178.88"/>
        <lane id=":gneJ10_0_3" index="3" disallow="bicycle pedestrian" speed="13.89" length="6.18" width="5.50" shape="102.20,176.46 100.90,176.02 100.02,175.67 99.18,175.23 98.00,174.52"/>
    </edge>
    <edge id=":gneJ10_4" function="internal">
        <lane id=":gneJ10_4_0" index="0" allow="pedestrian" speed="13.89" length="1.84" width="4.00" shape="107.61,158.66 107.73,158.73 107.81,158.77 107.89,158.80 108.02,158.85"/>
        <lane id=":gneJ10_4_1" index="1" allow="bicycle" speed="13.89" length="1.84" width="3.40" shape="105.64,161.91 105.98,162.11 106.21,162.23 106.46,162.33 106.83,162.45"/>
        <lane id=":gneJ10_4_2" index="2" disallow="bicycle pedestrian" speed="13.89" length="1.84" width="4.50" shape="103.54,165.37 104.11,165.71 104.51,165.92 104.93,166.09 105.56,166.30"/>
        <lane id=":gneJ10_4_3" index="3" disallow="bicycle pedestrian" speed="13.89" length="1.84" width="5.50" shape="100.90,169.73 101.76,170.25 102.37,170.57 103.01,170.82 103.96,171.14"/>
    </edge>
    <edge id=":gneJ11_0" function="internal">
        <lane id=":gneJ11_0_0" index="0" allow="pedestrian" speed="13.89" length="6.29" width="4.00" shape="141.08,202.02 138.81,201.80 137.26,201.56 135.74,201.17 133.57,200.46"/>
        <lane id=":gneJ11_0_1" index="1" allow="bicycle" speed="13.89" length="6.29" width="3.40" shape="141.42,198.24 139.40,198.04 138.03,197.83 136.68,197.48 134.76,196.85"/>
        <lane id=":gneJ11_0_2" index="2" disallow="bicycle pedestrian" speed="13.89" length="6.29" width="4.50" shape="141.78,194.20 140.04,194.03 138.85,193.85 137.69,193.55 136.03,193.01"/>
        <lane id=":gneJ11_0_3" index="3" disallow="bicycle pedestrian" speed="13.89" length="6.29" width="5.50" shape="142.24,189.12 140.84,188.99 139.89,188.84 138.96,188.60 137.63,188.17"/>
    </edge>
    <edge id=":gneJ11_4" function="internal">
        <lane id=":gneJ11_4_0" index="0" allow="pedestrian" speed="13.89" length="1.87" width="4.00" shape="143.45,170.55 143.58,170.60 143.67,170.62 143.76,170.63 143.90,170.65"/>
        <lane id=":gneJ11_4_1" index="1" allow="bicycle" speed="13.89" length="1.87" width="3.40" shape="142.26,174.16 142.63,174.28 142.90,174.35 143.16,174.39 143.56,174.43"/>
        <lane id=":gneJ11_4_2" index="2" disallow="bicycle pedestrian" speed="13.89" length="1.87" width="4.50" shape="140.99,178.01 141.62,178.21 142.07,178.33 142.53,178.40 143.19,178.46"/>
        <lane id=":gneJ11_4_3" index="3" disallow="bicycle pedestrian" speed="13.89" length="1.87" width="5.50" shape="139.39,182.85 140.36,183.16 141.03,183.34 141.72,183.45 142.74,183.54"/>
    </edge>
    <edge id=":gneJ3_0" function="internal">
        <lane id=":gneJ3_0_0" index="0" allow="pedestrian" speed="13.89" length="2.75" width="4.00" shape="-14.08,26.13 -14.24,25.14 -14.33,24.47 -14.38,23.79 -14.45,22.79"/>
        <lane id=":gneJ3_0_1" index="1" allow="bicycle" speed="13.89" length="2.75" width="3.40" shape="-10.33,25.53 -10.47,24.65 -10.55,24.05 -10.60,23.45 -10.65,22.57"/>
        <lane id=":gneJ3_0_2" index="2" disallow="bicycle pedestrian" speed="13.89" length="2.75" width="4.50" shape="-6.33,24.89 -6.45,24.13 -6.52,23.62 -6.56,23.09 -6.61,22.33"/>
        <lane id=":gneJ3_0_3" index="3" disallow="bicycle pedestrian" speed="13.89" length="2.75" width="5.50" shape="-1.29,24.08 -1.39,23.48 -1.44,23.06 -1.48,22.64 -1.52,22.03"/>
    </edge>
    <edge id=":gneJ3_4" function="internal">
        <lane id=":gneJ3_4_0" index="0" allow="bicycle" speed="13.89" length="1.02" width="3.40" shape="13.21,21.17 13.22,21.35 13.23,21.46 13.24,21.58 13.27,21.75"/>
        <lane id=":gneJ3_4_1" index="1" disallow="bicycle pedestrian" speed="13.89" length="1.02" width="4.50" shape="9.16,21.41 9.18,21.70 9.20,21.90 9.23,22.10 9.27,22.39"/>
        <lane id=":gneJ3_4_2" index="2" disallow="bicycle pedestrian" speed="13.89" length="1.02" width="5.50" shape="4.07,21.71 4.10,22.15 4.13,22.46 4.17,22.76 4.24,23.20"/>
    </edge>
    <edge id=":gneJ5_0" function="internal">
        <lane id=":gneJ5_0_0" index="0" allow="pedestrian" speed="13.89" length="2.91" width="4.00" shape="-9.90,51.04 -10.18,50.01 -10.35,49.31 -10.48,48.60 -10.65,47.56"/>
        <lane id=":gneJ5_0_1" index="1" allow="bicycle" speed="13.89" length="2.91" width="3.40" shape="-6.24,50.04 -6.48,49.14 -6.63,48.51 -6.75,47.88 -6.90,46.96"/>
        <lane id=":gneJ5_0_2" index="2" disallow="bicycle pedestrian" speed="13.89" length="2.91" width="4.50" shape="-2.33,48.98 -2.54,48.20 -2.67,47.66 -2.77,47.12 -2.90,46.32"/>
        <lane id=":gneJ5_0_3" index="3" disallow="bicycle pedestrian" speed="13.89" length="2.91" width="5.50" shape="2.59,47.64 2.43,47.02 2.32,46.59 2.24,46.15 2.14,45.51"/>
    </edge>
    <edge id=":gneJ5_4" function="internal">
        <lane id=":gneJ5_4_0" index="0" allow="pedestrian" speed="13.89" length="0.87" width="4.00" shape="20.45,42.58 20.46,42.64 20.47,42.68 20.48,42.73 20.50,42.79"/>
        <lane id=":gneJ5_4_1" index="1" allow="bicycle" speed="13.89" length="0.87" width="3.40" shape="16.70,43.18 16.73,43.36 16.75,43.48 16.78,43.60 16.83,43.78"/>
        <lane id=":gneJ5_4_2" index="2" disallow="bicycle pedestrian" speed="13.89" length="0.87" width="4.50" shape="12.70,43.82 12.75,44.13 12.79,44.34 12.84,44.54 12.92,44.84"/>
        <lane id=":gneJ5_4_3" index="3" disallow="bicycle pedestrian" speed="13.89" length="0.87" width="5.50" shape="7.67,44.63 7.74,45.09 7.80,45.41 7.88,45.72 8.00,46.18"/>
    </edge>
    <edge id=":gneJ6_0" function="internal">
        <lane id=":gneJ6_0_0" index="0" allow="pedestrian" speed="13.89" length="3.47" width="4.00" shape="-2.28,78.11 -2.75,76.95 -3.06,76.14 -3.31,75.31 -3.65,74.10"/>
        <lane id=":gneJ6_0_1" index="1" allow="bicycle" speed="13.89" length="3.47" width="3.40" shape="1.24,76.66 0.81,75.63 0.54,74.91 0.32,74.18 0.02,73.10"/>
        <lane id=":gneJ6_0_2" index="2" disallow="bicycle pedestrian" speed="13.89" length="3.47" width="4.50" shape="4.98,75.12 4.61,74.22 4.38,73.60 4.19,72.97 3.93,72.04"/>
        <lane id=":gneJ6_0_3" index="3" disallow="bicycle pedestrian" speed="13.89" length="3.47" width="5.50" shape="9.69,73.17 9.40,72.45 9.21,71.96 9.06,71.45 8.85,70.71"/>
    </edge>
    <edge id=":gneJ6_4" function="internal">
        <lane id=":gneJ6_4_0" index="0" allow="pedestrian" speed="13.89" length="1.03" width="4.00" shape="26.76,65.85 26.78,65.92 26.79,65.97 26.81,66.02 26.84,66.09"/>
        <lane id=":gneJ6_4_1" index="1" allow="bicycle" speed="13.89" length="1.03" width="3.40" shape="23.09,66.84 23.15,67.05 23.19,67.20 23.24,67.34 23.32,67.54"/>
        <lane id=":gneJ6_4_2" index="2" disallow="bicycle pedestrian" speed="13.89" length="1.03" width="4.50" shape="19.18,67.90 19.28,68.26 19.35,68.50 19.44,68.74 19.58,69.09"/>
        <lane id=":gneJ6_4_3" index="3" disallow="bicycle pedestrian" speed="13.89" length="1.03" width="5.50" shape="14.26,69.24 14.41,69.78 14.52,70.15 14.65,70.51 14.87,71.03"/>
    </edge>
    <edge id=":gneJ7_0" function="internal">
        <lane id=":gneJ7_0_0" index="0" allow="pedestrian" speed="13.89" length="5.13" width="4.00" shape="10.80,108.23 9.79,106.67 9.14,105.57 8.60,104.41 7.88,102.69"/>
        <lane id=":gneJ7_0_1" index="1" allow="bicycle" speed="13.89" length="5.13" width="3.40" shape="13.98,106.15 13.08,104.77 12.51,103.79 12.03,102.77 11.39,101.24"/>
        <lane id=":gneJ7_0_2" index="2" disallow="bicycle pedestrian" speed="13.89" length="5.13" width="4.50" shape="17.37,103.94 16.59,102.74 16.10,101.90 15.68,101.01 15.13,99.70"/>
        <lane id=":gneJ7_0_3" index="3" disallow="bicycle pedestrian" speed="13.89" length="5.13" width="5.50" shape="21.64,101.15 21.02,100.19 20.62,99.51 20.29,98.80 19.85,97.75"/>
    </edge>
    <edge id=":gneJ7_4" function="internal">
        <lane id=":gneJ7_4_0" index="0" allow="pedestrian" speed="13.89" length="1.53" width="4.00" shape="36.99,90.67 37.03,90.77 37.07,90.84 37.10,90.90 37.17,91.00"/>
        <lane id=":gneJ7_4_1" index="1" allow="bicycle" speed="13.89" length="1.53" width="3.40" shape="33.48,92.12 33.60,92.41 33.70,92.61 33.81,92.81 33.98,93.08"/>
        <lane id=":gneJ7_4_2" index="2" disallow="bicycle pedestrian" speed="13.89" length="1.53" width="4.50" shape="29.74,93.66 29.95,94.17 30.11,94.51 30.30,94.83 30.59,95.29"/>
        <lane id=":gneJ7_4_3" index="3" disallow="bicycle pedestrian" speed="13.89" length="1.53" width="5.50" shape="25.02,95.61 25.34,96.38 25.59,96.89 25.87,97.38 26.33,98.08"/>
    </edge>
    <edge id=":gneJ8_0" function="internal">
        <lane id=":gneJ8_0_0" index="0" allow="pedestrian" speed="13.89" length="5.68" width="4.00" shape="32.80,140.58 31.35,139.12 30.40,138.06 29.56,136.92 28.43,135.20"/>
        <lane id=":gneJ8_0_1" index="1" allow="bicycle" speed="13.89" length="5.68" width="3.40" shape="35.48,137.89 34.20,136.59 33.36,135.66 32.62,134.65 31.61,133.12"/>
        <lane id=":gneJ8_0_2" index="2" disallow="bicycle pedestrian" speed="13.89" length="5.68" width="4.50" shape="38.35,135.03 37.23,133.90 36.51,133.10 35.87,132.22 35.00,130.91"/>
        <lane id=":gneJ8_0_3" index="3" disallow="bicycle pedestrian" speed="13.89" length="5.68" width="5.50" shape="41.95,131.42 41.06,130.52 40.48,129.87 39.96,129.17 39.27,128.12"/>
    </edge>
    <edge id=":gneJ8_4" function="internal">
        <lane id=":gneJ8_4_0" index="0" allow="pedestrian" speed="13.89" length="1.69" width="4.00" shape="54.79,117.97 54.86,118.07 54.91,118.14 54.97,118.20 55.05,118.29"/>
        <lane id=":gneJ8_4_1" index="1" allow="bicycle" speed="13.89" length="1.69" width="3.40" shape="51.61,120.05 51.81,120.34 51.95,120.54 52.12,120.72 52.37,120.98"/>
        <lane id=":gneJ8_4_2" index="2" disallow="bicycle pedestrian" speed="13.89" length="1.69" width="4.50" shape="48.22,122.26 48.56,122.77 48.80,123.10 49.08,123.41 49.51,123.84"/>
        <lane id=":gneJ8_4_3" index="3" disallow="bicycle pedestrian" speed="13.89" length="1.69" width="5.50" shape="43.95,125.05 44.46,125.82 44.84,126.33 45.26,126.80 45.90,127.45"/>
    </edge>
    <edge id=":gneJ9_0" function="internal">
        <lane id=":gneJ9_0_0" index="0" allow="pedestrian" speed="13.89" length="6.57" width="4.00" shape="60.65,167.03 58.61,165.78 57.27,164.84 56.04,163.76 54.34,162.09"/>
        <lane id=":gneJ9_0_1" index="1" allow="bicycle" speed="13.89" length="6.57" width="3.40" shape="62.61,163.78 60.81,162.67 59.62,161.84 58.53,160.88 57.02,159.40"/>
        <lane id=":gneJ9_0_2" index="2" disallow="bicycle pedestrian" speed="13.89" length="6.57" width="4.50" shape="64.71,160.31 63.16,159.36 62.13,158.64 61.19,157.81 59.89,156.53"/>
        <lane id=":gneJ9_0_3" index="3" disallow="bicycle pedestrian" speed="13.89" length="6.57" width="5.50" shape="67.36,155.95 66.11,155.19 65.29,154.61 64.53,153.95 63.49,152.92"/>
    </edge>
    <edge id=":gneJ9_4" function="internal">
        <lane id=":gneJ9_4_0" index="0" allow="pedestrian" speed="13.89" length="1.96" width="4.00" shape="76.59,139.79 76.70,139.89 76.77,139.96 76.85,140.01 76.97,140.09"/>
        <lane id=":gneJ9_4_1" index="1" allow="bicycle" speed="13.89" length="1.96" width="3.40" shape="73.91,142.48 74.20,142.77 74.42,142.96 74.65,143.12 75.00,143.34"/>
        <lane id=":gneJ9_4_2" index="2" disallow="bicycle pedestrian" speed="13.89" length="1.96" width="4.50" shape="71.05,145.35 71.55,145.84 71.91,146.16 72.31,146.43 72.90,146.80"/>
        <lane id=":gneJ9_4_3" index="3" disallow="bicycle pedestrian" speed="13.89" length="1.96" width="5.50" shape="67.45,148.96 68.20,149.71 68.75,150.19 69.35,150.61 70.26,151.16"/>
    </edge>

    <edge id="-gneE1" from="gneJ3" to="gneJ2" priority="1" shape="1.33,22.76 0.00,0.00">
        <lane id="-gneE1_0" index="0" allow="pedestrian" speed="13.89" length="21.91" width="4.00" shape="-14.45,22.79 -15.72,0.92"/>
        <lane id="-gneE1_1" index="1" allow="bicycle" speed="13.89" length="21.91" width="3.40" shape="-10.65,22.57 -11.93,0.70"/>
        <lane id="-gneE1_2" index="2" disallow="bicycle pedestrian" speed="13.89" length="21.91" width="4.50" shape="-6.61,22.33 -7.89,0.46"/>
        <lane id="-gneE1_3" index="3" disallow="bicycle pedestrian" speed="13.89" length="21.91" width="5.50" shape="-1.52,22.03 -2.80,0.16"/>
    </edge>
    <edge id="-gneE10" from="gneJ12" to="gneJ11" priority="1">
        <lane id="-gneE10_0" index="0" allow="pedestrian" speed="13.89" length="45.13" width="4.00" shape="186.03,206.06 141.08,202.02"/>
        <lane id="-gneE10_1" index="1" allow="bicycle" speed="13.89" length="45.13" width="3.40" shape="186.37,202.27 141.42,198.24"/>
        <lane id="-gneE10_2" index="2" disallow="bicycle pedestrian" speed="13.89" length="45.13" width="4.50" shape="186.73,198.24 141.78,194.20"/>
        <lane id="-gneE10_3" index="3" disallow="bicycle pedestrian" speed="13.89" length="45.13" width="5.50" shape="187.19,193.16 142.24,189.12"/>
    </edge>
    <edge id="-gneE3" from="gneJ5" to="gneJ3" priority="1" shape="5.05,46.00 1.33,22.76">
        <lane id="-gneE3_0" index="0" allow="pedestrian" speed="13.89" length="21.70" width="4.00" shape="-10.65,47.56 -14.08,26.13"/>
        <lane id="-gneE3_1" index="1" allow="bicycle" speed="13.89" length="21.70" width="3.40" shape="-6.90,46.96 -10.33,25.53"/>
        <lane id="-gneE3_2" index="2" disallow="bicycle pedestrian" speed="13.89" length="21.70" width="4.50" shape="-2.90,46.32 -6.33,24.89"/>
        <lane id="-gneE3_3" index="3" disallow="bicycle pedestrian" speed="13.89" length="21.70" width="5.50" shape="2.14,45.51 -1.29,24.08"/>
    </edge>
    <edge id="-gneE4" from="gneJ6" to="gneJ5" priority="1">
        <lane id="-gneE4_0" index="0" allow="pedestrian" speed="13.89" length="23.90" width="4.00" shape="-3.65,74.10 -9.90,51.04"/>
        <lane id="-gneE4_1" index="1" allow="bicycle" speed="13.89" length="23.90" width="3.40" shape="0.02,73.10 -6.24,50.04"/>
        <lane id="-gneE4_2" index="2" disallow="bicycle pedestrian" speed="13.89" length="23.90" width="4.50" shape="3.93,72.04 -2.33,48.98"/>
        <lane id="-gneE4_3" index="3" disallow="bicycle pedestrian" speed="13.89" length="23.90" width="5.50" shape="8.85,70.71 2.59,47.64"/>
    </edge>
    <edge id="-gneE5" from="gneJ7" to="gneJ6" priority="1">
        <lane id="-gneE5_0" index="0" allow="pedestrian" speed="13.89" length="26.59" width="4.00" shape="7.88,102.69 -2.28,78.11"/>
        <lane id="-gneE5_1" index="1" allow="bicycle" speed="13.89" length="26.59" width="3.40" shape="11.39,101.24 1.24,76.66"/>
        <lane id="-gneE5_2" index="2" disallow="bicycle pedestrian" speed="13.89" length="26.59" width="4.50" shape="15.13,99.70 4.98,75.12"/>
        <lane id="-gneE5_3" index="3" disallow="bicycle pedestrian" speed="13.89" length="26.59" width="5.50" shape="19.85,97.75 9.69,73.17"/>
    </edge>
    <edge id="-gneE6" from="gneJ8" to="gneJ7" priority="1">
        <lane id="-gneE6_0" index="0" allow="pedestrian" speed="13.89" length="32.22" width="4.00" shape="28.43,135.20 10.80,108.23"/>
        <lane id="-gneE6_1" index="1" allow="bicycle" speed="13.89" length="32.22" width="3.40" shape="31.61,133.12 13.98,106.15"/>
        <lane id="-gneE6_2" index="2" disallow="bicycle pedestrian" speed="13.89" length="32.22" width="4.50" shape="35.00,130.91 17.37,103.94"/>
        <lane id="-gneE6_3" index="3" disallow="bicycle pedestrian" speed="13.89" length="32.22" width="5.50" shape="39.27,128.12 21.64,101.15"/>
    </edge>
    <edge id="-gneE7" from="gneJ9" to="gneJ8" priority="1">
        <lane id="-gneE7_0" index="0" allow="pedestrian" speed="13.89" length="30.44" width="4.00" shape="54.34,162.09 32.80,140.58"/>
        <lane id="-gneE7_1" index="1" allow="bicycle" speed="13.89" length="30.44" width="3.40" shape="57.02,159.40 35.48,137.89"/>
        <lane id="-gneE7_2" index="2" disallow="bicycle pedestrian" speed="13.89" length="30.44" width="4.50" shape="59.89,156.53 38.35,135.03"/>
        <lane id="-gneE7_3" index="3" disallow="bicycle pedestrian" speed="13.89" length="30.44" width="5.50" shape="63.49,152.92 41.95,131.42"/>
    </edge>
    <edge id="-gneE8" from="gneJ10" to="gneJ9" priority="1">
        <lane id="-gneE8_0" index="0" allow="pedestrian" speed="13.89" length="35.83" width="4.00" shape="91.29,185.60 60.65,167.03"/>
        <lane id="-gneE8_1" index="1" allow="bicycle" speed="13.89" length="35.83" width="3.40" shape="93.26,182.35 62.61,163.78"/>
        <lane id="-gneE8_2" index="2" disallow="bicycle pedestrian" speed="13.89" length="35.83" width="4.50" shape="95.36,178.88 64.71,160.31"/>
        <lane id="-gneE8_3" index="3" disallow="bicycle pedestrian" speed="13.89" length="35.83" width="5.50" shape="98.00,174.52 67.36,155.95"/>
    </edge>
    <edge id="-gneE9" from="gneJ11" to="gneJ10" priority="1">
        <lane id="-gneE9_0" index="0" allow="pedestrian" speed="13.89" length="37.31" width="4.00" shape="133.57,200.46 98.14,188.76"/>
        <lane id="-gneE9_1" index="1" allow="bicycle" speed="13.89" length="37.31" width="3.40" shape="134.76,196.85 99.33,185.15"/>
        <lane id="-gneE9_2" index="2" disallow="bicycle pedestrian" speed="13.89" length="37.31" width="4.50" shape="136.03,193.01 100.60,181.30"/>
        <lane id="-gneE9_3" index="3" disallow="bicycle pedestrian" speed="13.89" length="37.31" width="5.50" shape="137.63,188.17 102.20,176.46"/>
    </edge>
    <edge id="gneE1" from="gneJ2" to="gneJ3" priority="1" shape="0.00,0.00 1.33,22.76">
        <lane id="gneE1_0" index="0" allow="pedestrian" speed="13.89" length="21.91" width="4.00" shape="15.72,-0.92 17.00,20.95"/>
        <lane id="gneE1_1" index="1" allow="bicycle" speed="13.89" length="21.91" width="3.40" shape="11.93,-0.70 13.21,21.17"/>
        <lane id="gneE1_2" index="2" disallow="bicycle pedestrian" speed="13.89" length="21.91" width="4.50" shape="7.89,-0.46 9.16,21.41"/>
        <lane id="gneE1_3" index="3" disallow="bicycle pedestrian" speed="13.89" length="21.91" width="5.50" shape="2.80,-0.16 4.07,21.71"/>
    </edge>
    <edge id="gneE10" from="gneJ11" to="gneJ12" priority="1">
        <lane id="gneE10_0" index="0" allow="pedestrian" speed="13.89" length="45.13" width="4.00" shape="143.90,170.65 188.85,174.68"/>
        <lane id="gneE10_1" index="1" allow="bicycle" speed="13.89" length="45.13" width="3.40" shape="143.56,174.43 188.51,178.47"/>
        <lane id="gneE10_2" index="2" disallow="bicycle pedestrian" speed="13.89" length="45.13" width="4.50" shape="143.19,178.46 188.15,182.50"/>
        <lane id="gneE10_3" index="3" disallow="bicycle pedestrian" speed="13.89" length="45.13" width="5.50" shape="142.74,183.54 187.69,187.58"/>
    </edge>
    <edge id="gneE3" from="gneJ3" to="gneJ5" priority="1" shape="1.33,22.76 5.05,46.00">
        <lane id="gneE3_0" index="0" allow="pedestrian" speed="13.89" length="21.70" width="4.00" shape="17.02,21.15 20.45,42.58"/>
        <lane id="gneE3_1" index="1" allow="bicycle" speed="13.89" length="21.70" width="3.40" shape="13.27,21.75 16.70,43.18"/>
        <lane id="gneE3_2" index="2" disallow="bicycle pedestrian" speed="13.89" length="21.70" width="4.50" shape="9.27,22.39 12.70,43.82"/>
        <lane id="gneE3_3" index="3" disallow="bicycle pedestrian" speed="13.89" length="21.70" width="5.50" shape="4.24,23.20 7.67,44.63"/>
    </edge>
    <edge id="gneE4" from="gneJ5" to="gneJ6" priority="1">
        <lane id="gneE4_0" index="0" allow="pedestrian" speed="13.89" length="23.90" width="4.00" shape="20.50,42.79 26.76,65.85"/>
        <lane id="gneE4_1" index="1" allow="bicycle" speed="13.89" length="23.90" width="3.40" shape="16.83,43.78 23.09,66.84"/>
        <lane id="gneE4_2" index="2" disallow="bicycle pedestrian" speed="13.89" length="23.90" width="4.50" shape="12.92,44.84 19.18,67.90"/>
        <lane id="gneE4_3" index="3" disallow="bicycle pedestrian" speed="13.89" length="23.90" width="5.50" shape="8.00,46.18 14.26,69.24"/>
    </edge>
    <edge id="gneE5" from="gneJ6" to="gneJ7" priority="1">
        <lane id="gneE5_0" index="0" allow="pedestrian" speed="13.89" length="26.59" width="4.00" shape="26.84,66.09 36.99,90.67"/>
        <lane id="gneE5_1" index="1" allow="bicycle" speed="13.89" length="26.59" width="3.40" shape="23.32,67.54 33.48,92.12"/>
        <lane id="gneE5_2" index="2" disallow="bicycle pedestrian" speed="13.89" length="26.59" width="4.50" shape="19.58,69.09 29.74,93.66"/>
        <lane id="gneE5_3" index="3" disallow="bicycle pedestrian" speed="13.89" length="26.59" width="5.50" shape="14.87,71.03 25.02,95.61"/>
    </edge>
    <edge id="gneE6" from="gneJ7" to="gneJ8" priority="1">
        <lane id="gneE6_0" index="0" allow="pedestrian" speed="13.89" length="32.22" width="4.00" shape="37.17,91.00 54.79,117.97"/>
        <lane id="gneE6_1" index="1" allow="bicycle" speed="13.89" length="32.22" width="3.40" shape="33.98,93.08 51.61,120.05"/>
        <lane id="gneE6_2" index="2" disallow="bicycle pedestrian" speed="13.89" length="32.22" width="4.50" shape="30.59,95.29 48.22,122.26"/>
        <lane id="gneE6_3" index="3" disallow="bicycle pedestrian" speed="13.89" length="32.22" width="5.50" shape="26.33,98.08 43.95,125.05"/>
    </edge>
    <edge id="gneE7" from="gneJ8" to="gneJ9" priority="1">
        <lane id="gneE7_0" index="0" allow="pedestrian" speed="13.89" length="30.44" width="4.00" shape="55.05,118.29 76.59,139.79"/>
        <lane id="gneE7_1" index="1" allow="bicycle" speed="13.89" length="30.44" width="3.40" shape="52.37,120.98 73.91,142.48"/>
        <lane id="gneE7_2" index="2" disallow="bicycle pedestrian" speed="13.89" length="30.44" width="4.50" shape="49.51,123.84 71.05,145.35"/>
        <lane id="gneE7_3" index="3" disallow="bicycle pedestrian" speed="13.89" length="30.44" width="5.50" shape="45.90,127.45 67.45,148.96"/>
    </edge>
    <edge id="gneE8" from="gneJ9" to="gneJ10" priority="1">
        <lane id="gneE8_0" index="0" allow="pedestrian" speed="13.89" length="35.83" width="4.00" shape="76.97,140.09 107.61,158.66"/>
        <lane id="gneE8_1" index="1" allow="bicycle" speed="13.89" length="35.83" width="3.40" shape="75.00,143.34 105.64,161.91"/>
        <lane id="gneE8_2" index="2" disallow="bicycle pedestrian" speed="13.89" length="35.83" width="4.50" shape="72.90,146.80 103.54,165.37"/>
        <lane id="gneE8_3" index="3" disallow="bicycle pedestrian" speed="13.89" length="35.83" width="5.50" shape="70.26,151.16 100.90,169.73"/>
    </edge>
    <edge id="gneE9" from="gneJ10" to="gneJ11" priority="1">
        <lane id="gneE9_0" index="0" allow="pedestrian" speed="13.89" length="37.31" width="4.00" shape="108.02,158.85 143.45,170.55"/>
        <lane id="gneE9_1" index="1" allow="bicycle" speed="13.89" length="37.31" width="3.40" shape="106.83,162.45 142.26,174.16"/>
        <lane id="gneE9_2" index="2" disallow="bicycle pedestrian" speed="13.89" length="37.31" width="4.50" shape="105.56,166.30 140.99,178.01"/>
        <lane id="gneE9_3" index="3" disallow="bicycle pedestrian" speed="13.89" length="37.31" width="5.50" shape="103.96,171.14 139.39,182.85"/>
    </edge>

    <junction id="gneJ10" type="priority" x="101.17" y="173.17" incLanes="-gneE9_0 -gneE9_1 -gneE9_2 -gneE9_3 gneE8_0 gneE8_1 gneE8_2 gneE8_3" intLanes=":gneJ10_0_0 :gneJ10_0_1 :gneJ10_0_2 :gneJ10_0_3 :gneJ10_4_0 :gneJ10_4_1 :gneJ10_4_2 :gneJ10_4_3" shape="97.51,190.65 108.65,156.95 90.25,187.31">
        <request index="0" response="00000000" foes="00000000" cont="0"/>
        <request index="1" response="00000000" foes="00000000" cont="0"/>
        <request index="2" response="00000000" foes="00000000" cont="0"/>
        <request index="3" response="00000000" foes="00000000" cont="0"/>
        <request index="4" response="00000000" foes="00000000" cont="0"/>
        <request index="5" response="00000000" foes="00000000" cont="0"/>
        <request index="6" response="00000000" foes="00000000" cont="0"/>
        <request index="7" response="00000000" foes="00000000" cont="0"/>
    </junction>
    <junction id="gneJ11" type="priority" x="140.45" y="186.15" incLanes="-gneE10_0 -gneE10_1 -gneE10_2 -gneE10_3 gneE9_0 gneE9_1 gneE9_2 gneE9_3" intLanes=":gneJ11_0_0 :gneJ11_0_1 :gneJ11_0_2 :gneJ11_0_3 :gneJ11_4_0 :gneJ11_4_1 :gneJ11_4_2 :gneJ11_4_3" shape="140.90,204.01 144.08,168.65 132.94,202.36">
        <request index="0" response="00000000" foes="00000000" cont="0"/>
        <request index="1" response="00000000" foes="00000000" cont="0"/>
        <request index="2" response="00000000" foes="00000000" cont="0"/>
        <request index="3" response="00000000" foes="00000000" cont="0"/>
        <request index="4" response="00000000" foes="00000000" cont="0"/>
        <request index="5" response="00000000" foes="00000000" cont="0"/>
        <request index="6" response="00000000" foes="00000000" cont="0"/>
        <request index="7" response="00000000" foes="00000000" cont="0"/>
    </junction>
    <junction id="gneJ12" type="dead_end" x="187.44" y="190.37" incLanes="gneE10_0 gneE10_1 gneE10_2 gneE10_3" intLanes="" shape="187.44,190.42 189.03,172.69 187.44,190.32"/>
    <junction id="gneJ2" type="dead_end" x="0.00" y="0.00" incLanes="-gneE1_0 -gneE1_1 -gneE1_2 -gneE1_3" intLanes="" shape="0.05,-0.00 -17.72,1.04 -0.05,0.00"/>
    <junction id="gneJ3" type="priority" x="1.32" y="22.76" incLanes="-gneE3_0 -gneE3_1 -gneE3_2 -gneE3_3 gneE1_0 gneE1_1 gneE1_2 gneE1_3" intLanes=":gneJ3_0_0 :gneJ3_0_1 :gneJ3_0_2 :gneJ3_0_3 :gneJ3_4_0 :gneJ3_4_1 :gneJ3_4_2" shape="-16.06,26.45 19.00,20.83 -16.44,22.91">
        <request index="0" response="0000000" foes="0000000" cont="0"/>
        <request index="1" response="0000000" foes="0000000" cont="0"/>
        <request index="2" response="0000000" foes="0000000" cont="0"/>
        <request index="3" response="0000000" foes="0000000" cont="0"/>
        <request index="4" response="0000000" foes="0000000" cont="0"/>
        <request index="5" response="0000000" foes="0000000" cont="0"/>
        <request index="6" response="0000000" foes="0000000" cont="0"/>
    </junction>
    <junction id="gneJ5" type="priority" x="5.05" y="46.00" incLanes="-gneE4_0 -gneE4_1 -gneE4_2 -gneE4_3 gneE3_0 gneE3_1 gneE3_2 gneE3_3" intLanes=":gneJ5_0_0 :gneJ5_0_1 :gneJ5_0_2 :gneJ5_0_3 :gneJ5_4_0 :gneJ5_4_1 :gneJ5_4_2 :gneJ5_4_3" shape="-11.83,51.56 22.43,42.26 -12.63,47.87">
        <request index="0" response="00000000" foes="00000000" cont="0"/>
        <request index="1" response="00000000" foes="00000000" cont="0"/>
        <request index="2" response="00000000" foes="00000000" cont="0"/>
        <request index="3" response="00000000" foes="00000000" cont="0"/>
        <request index="4" response="00000000" foes="00000000" cont="0"/>
        <request index="5" response="00000000" foes="00000000" cont="0"/>
        <request index="6" response="00000000" foes="00000000" cont="0"/>
        <request index="7" response="00000000" foes="00000000" cont="0"/>
    </junction>
    <junction id="gneJ6" type="priority" x="11.85" y="71.06" incLanes="-gneE5_0 -gneE5_1 -gneE5_2 -gneE5_3 gneE4_0 gneE4_1 gneE4_2 gneE4_3" intLanes=":gneJ6_0_0 :gneJ6_0_1 :gneJ6_0_2 :gneJ6_0_3 :gneJ6_4_0 :gneJ6_4_1 :gneJ6_4_2 :gneJ6_4_3" shape="-4.13,78.88 28.69,65.32 -5.58,74.62">
        <request index="0" response="00000000" foes="00000000" cont="0"/>
        <request index="1" response="00000000" foes="00000000" cont="0"/>
        <request index="2" response="00000000" foes="00000000" cont="0"/>
        <request index="3" response="00000000" foes="00000000" cont="0"/>
        <request index="4" response="00000000" foes="00000000" cont="0"/>
        <request index="5" response="00000000" foes="00000000" cont="0"/>
        <request index="6" response="00000000" foes="00000000" cont="0"/>
        <request index="7" response="00000000" foes="00000000" cont="0"/>
    </junction>
    <junction id="gneJ7" type="priority" x="23.07" y="98.22" incLanes="-gneE6_0 -gneE6_1 -gneE6_2 -gneE6_3 gneE5_0 gneE5_1 gneE5_2 gneE5_3" intLanes=":gneJ7_0_0 :gneJ7_0_1 :gneJ7_0_2 :gneJ7_0_3 :gneJ7_4_0 :gneJ7_4_1 :gneJ7_4_2 :gneJ7_4_3" shape="9.12,109.33 38.84,89.90 6.03,103.46">
        <request index="0" response="00000000" foes="00000000" cont="0"/>
        <request index="1" response="00000000" foes="00000000" cont="0"/>
        <request index="2" response="00000000" foes="00000000" cont="0"/>
        <request index="3" response="00000000" foes="00000000" cont="0"/>