<?xml version="1.0" encoding="UTF-8"?>

<!-- generated on Mon Sep 10 14:55:57 2018 by Netedit Version 0.32.0
<?xml version="1.0" encoding="UTF-8"?>

<configuration xmlns:xsi="http://www.w3.org/2001/XMLSchema-instance" xsi:noNamespaceSchemaLocation="http://sumo.dlr.de/xsd/netconvertConfiguration.xsd">

    <input>
        <sumo-net-file value="./data/6lanes.net.xml"/>
    </input>

    <output>
        <output-file value="./data/6lanes.net.xml"/>
    </output>

    <processing>
        <no-internal-links value="false"/>
        <no-turnarounds value="true"/>
        <offset.disable-normalization value="true"/>
        <lefthand value="false"/>
        <junctions.corner-detail value="0"/>
        <rectangular-lane-cut value="false"/>
        <walkingareas value="false"/>
    </processing>

</configuration>
-->

<net version="0.27" xmlns:xsi="http://www.w3.org/2001/XMLSchema-instance" xsi:noNamespaceSchemaLocation="http://sumo.dlr.de/xsd/net_file.xsd">

    <location netOffset="0.00,0.00" convBoundary="-61.34,0.00,61.34,210.00" origBoundary="-10000000000.00,-10000000000.00,10000000000.00,10000000000.00" projParameter="!"/>

    <edge id=":gneJ10_w0" function="walkingarea">
        <lane id=":gneJ10_w0_0" index="0" allow="pedestrian" speed="1.00" length="0.10" width="6.60" shape="9.90,-0.00 16.50,-0.00 -14.63,-0.00 -8.03,-0.00"/>
    </edge>
    <edge id=":gneJ11_0" function="internal">
        <lane id=":gneJ11_0_0" index="0" allow="bus" speed="13.89" length="0.10" width="3.14" shape="8.23,190.00 8.23,190.00"/>
        <lane id=":gneJ11_0_1" index="1" allow="passenger" speed="13.89" length="0.10" width="3.24" shape="4.94,190.00 4.94,190.00"/>
        <lane id=":gneJ11_0_2" index="2" allow="passenger" speed="13.89" length="0.10" width="2.78" shape="1.83,190.00 1.83,190.00"/>
        <lane id=":gneJ11_0_3" index="3" allow="passenger" speed="13.89" length="0.10" width="3.31" shape="-1.31,190.00 -1.31,190.00"/>
        <lane id=":gneJ11_0_4" index="4" allow="passenger" speed="13.89" length="0.10" width="2.76" shape="-4.45,190.00 -4.45,190.00"/>
        <lane id=":gneJ11_0_5" index="5" allow="bicycle" speed="13.89" length="0.10" width="2.00" shape="-6.93,190.00 -6.93,190.00"/>
    </edge>
    <edge id=":gneJ11_w0" function="walkingarea">
        <lane id=":gneJ11_w0_0" index="0" allow="pedestrian" speed="1.00" length="0.10" width="6.60" shape="-8.03,190.00 -14.63,190.00 -14.63,190.00 -8.03,190.00"/>
    </edge>
    <edge id=":gneJ11_w1" function="walkingarea">
        <lane id=":gneJ11_w1_0" index="0" allow="pedestrian" speed="1.00" length="0.10" width="6.60" shape="9.90,190.00 16.50,190.00 16.50,190.00 9.90,190.00"/>
    </edge>
    <edge id=":gneJ12_w0" function="walkingarea">
        <lane id=":gneJ12_w0_0" index="0" allow="pedestrian" speed="1.00" length="0.10" width="6.60" shape="-8.03,210.00 -14.63,210.00 16.50,210.00 9.90,210.00"/>
    </edge>
    <edge id=":gneJ7_0" function="internal">
        <lane id=":gneJ7_0_0" index="0" allow="passenger" speed="13.89" length="13.99" width="3.24" shape="18.00,68.32 12.29,68.90 8.20,70.65 5.76,73.56"/>
    </edge>
    <edge id=":gneJ7_1" function="internal">
        <lane id=":gneJ7_1_0" index="0" speed="13.89" length="34.13" width="2.25" shape="18.00,68.32 -16.13,68.32"/>
        <lane id=":gneJ7_1_1" index="1" allow="passenger" speed="13.89" length="34.13" width="2.25" shape="18.00,65.97 -16.13,65.97"/>
    </edge>
    <edge id=":gneJ7_15" function="internal">
        <lane id=":gneJ7_15_0" index="0" speed="13.89" length="4.16" width="3.24" shape="5.76,73.56 4.94,77.64"/>
    </edge>
    <edge id=":gneJ7_3" function="internal">
        <lane id=":gneJ7_3_0" index="0" allow="bus" speed="13.89" length="25.70" width="3.14" shape="8.23,51.94 8.23,77.64"/>
    </edge>
    <edge id=":gneJ7_4" function="internal">
        <lane id=":gneJ7_4_0" index="0" speed="13.89" length="29.08" width="2.25" shape="8.23,51.94 6.71,59.10 2.14,64.22 -5.47,67.29 -12.13,67.93"/>
    </edge>
    <edge id=":gneJ7_5" function="internal">
        <lane id=":gneJ7_5_0" index="0" allow="passenger" speed="13.89" length="5.57" width="2.25" shape="4.94,51.94 5.76,56.02 6.66,57.10"/>
    </edge>
    <edge id=":gneJ7_6" function="internal">
        <lane id=":gneJ7_6_0" index="0" allow="passenger" speed="13.89" length="25.70" width="3.24" shape="4.94,51.94 4.94,77.64"/>
        <lane id=":gneJ7_6_1" index="1" allow="passenger" speed="13.89" length="25.70" width="2.78" shape="1.83,51.94 1.83,77.64"/>
        <lane id=":gneJ7_6_2" index="2" allow="passenger" speed="13.89" length="25.70" width="3.31" shape="-1.31,51.94 -1.31,77.64"/>
        <lane id=":gneJ7_6_3" index="3" allow="passenger" speed="13.89" length="25.70" width="2.76" shape="-4.45,51.94 -4.45,77.64"/>
    </edge>
    <edge id=":gneJ7_10" function="internal">
        <lane id=":gneJ7_10_0" index="0" allow="passenger" speed="13.89" length="16.70" width="2.25" shape="-4.45,51.94 -5.18,58.08 -7.37,62.46 -11.02,65.09 -12.13,65.28"/>
    </edge>
    <edge id=":gneJ7_11" function="internal">
        <lane id=":gneJ7_11_0" index="0" allow="bicycle" speed="13.89" length="25.70" width="2.00" shape="-6.93,51.94 -6.93,77.64"/>
    </edge>
    <edge id=":gneJ7_16" function="internal">
        <lane id=":gneJ7_16_0" index="0" speed="13.89" length="4.02" width="2.25" shape="-12.13,67.93 -16.13,68.32"/>
    </edge>
    <edge id=":gneJ7_17" function="internal">
        <lane id=":gneJ7_17_0" index="0" speed="13.89" length="12.58" width="2.25" shape="6.66,57.10 8.21,58.93 12.29,60.68 18.00,61.27"/>
    </edge>
    <edge id=":gneJ7_18" function="internal">
        <lane id=":gneJ7_18_0" index="0" speed="13.89" length="4.06" width="2.25" shape="-12.13,65.28 -16.13,65.97"/>
    </edge>
    <edge id=":gneJ7_12" function="internal">
        <lane id=":gneJ7_12_0" index="0" allow="passenger" speed="13.89" length="34.13" width="2.25" shape="-16.13,61.27 18.00,61.27"/>
        <lane id=":gneJ7_12_1" index="1" allow="passenger" speed="13.89" length="34.13" width="2.25" shape="-16.13,63.62 18.00,63.62"/>
    </edge>
    <edge id=":gneJ7_14" function="internal">
        <lane id=":gneJ7_14_0" index="0" allow="passenger" speed="13.89" length="5.78" width="2.76" shape="-16.13,63.62 -11.02,64.49 -10.54,64.84"/>
    </edge>
    <edge id=":gneJ7_19" function="internal">
        <lane id=":gneJ7_19_0" index="0" speed="13.89" length="14.98" width="2.76" shape="-10.54,64.84 -7.37,67.12 -5.18,71.50 -4.45,77.64"/>
    </edge>
    <edge id=":gneJ7_c0" function="crossing" crossingEdges="gneE10">
        <lane id=":gneJ7_c0_0" index="0" allow="pedestrian" speed="1.00" length="17.73" width="4.00" shape="9.80,75.64 -7.93,75.64"/>
    </edge>
    <edge id=":gneJ7_c1" function="crossing" crossingEdges="-gneE8 gneE8">
        <lane id=":gneJ7_c1_0" index="0" allow="pedestrian" speed="1.00" length="9.30" width="4.00" shape="16.00,60.14 16.00,69.44"/>
    </edge>
    <edge id=":gneJ7_c2" function="crossing" crossingEdges="gneE9">
        <lane id=":gneJ7_c2_0" index="0" allow="pedestrian" speed="1.00" length="17.73" width="4.00" shape="-7.93,53.94 9.80,53.94"/>
    </edge>
    <edge id=":gneJ7_c3" function="crossing" crossingEdges="gneE7 -gneE7">
        <lane id=":gneJ7_c3_0" index="0" allow="pedestrian" speed="1.00" length="9.30" width="4.00" shape="-14.13,69.44 -14.13,60.14"/>
    </edge>
    <edge id=":gneJ7_w0" function="walkingarea">
        <lane id=":gneJ7_w0_0" index="0" allow="pedestrian" speed="1.00" length="16.81" width="6.60" shape="-12.13,69.44 -16.13,69.44 -16.13,67.19 -16.13,69.44 -16.13,69.54 -16.13,76.14 -14.63,77.64 -8.03,77.64 -7.93,77.64 -7.93,73.64"/>
    </edge>
    <edge id=":gneJ7_w1" function="walkingarea">
        <lane id=":gneJ7_w1_0" index="0" allow="pedestrian" speed="1.00" length="6.80" width="6.60" shape="9.80,73.64 9.90,77.64 16.50,77.64 18.00,76.14 18.00,69.54 14.00,69.44"/>
    </edge>
    <edge id=":gneJ7_w2" function="walkingarea">
        <lane id=":gneJ7_w2_0" index="0" allow="pedestrian" speed="1.00" length="6.80" width="6.60" shape="14.00,60.14 18.00,60.14 18.00,60.04 18.00,53.44 16.50,51.94 9.90,51.94 9.80,55.94"/>
    </edge>
    <edge id=":gneJ7_w3" function="walkingarea">
        <lane id=":gneJ7_w3_0" index="0" allow="pedestrian" speed="1.00" length="16.81" width="6.60" shape="-7.93,55.94 -8.03,51.94 -14.63,51.94 -16.13,53.44 -16.13,60.04 -12.13,60.14"/>
    </edge>
    <edge id=":gneJ8_w0" function="walkingarea">
        <lane id=":gneJ8_w0_0" index="0" allow="pedestrian" speed="1.00" length="16.10" width="6.60" shape="-61.34,60.04 -61.34,53.44 -61.34,76.14 -61.34,69.54 -61.34,69.44 -61.34,67.19"/>
    </edge>
    <edge id=":gneJ9_w0" function="walkingarea">
        <lane id=":gneJ9_w0_0" index="0" allow="pedestrian" speed="1.00" length="16.10" width="6.60" shape="61.34,69.54 61.34,76.14 61.34,53.44 61.34,60.04"/>
    </edge>

    <edge id="-gneE7" from="gneJ8" to="gneJ7" priority="1">
        <lane id="-gneE7_0" index="0" allow="pedestrian" speed="13.89" length="45.21" width="6.60" shape="-61.34,56.74 -16.13,56.74"/>
        <lane id="-gneE7_1" index="1" allow="passenger" speed="13.89" length="45.21" width="2.25" shape="-61.34,61.27 -16.13,61.27"/>
        <lane id="-gneE7_2" index="2" allow="passenger" speed="13.89" length="45.21" width="2.25" shape="-61.34,63.62 -16.13,63.62"/>
    </edge>
    <edge id="-gneE8" from="gneJ7" to="gneJ9" priority="1" length="50.14">
        <lane id="-gneE8_0" index="0" allow="pedestrian" speed="13.89" length="50.14" width="6.60" shape="18.00,56.74 61.34,56.74"/>
        <lane id="-gneE8_1" index="1" allow="passenger" speed="13.89" length="50.14" width="2.25" shape="18.00,61.27 61.34,61.27"/>
        <lane id="-gneE8_2" index="2" allow="passenger" speed="13.89" length="50.14" width="2.25" shape="18.00,63.62 61.34,63.62"/>
    </edge>
    <edge id="gneE10" from="gneJ7" to="gneJ11" priority="1">
        <lane id="gneE10_0" index="0" allow="pedestrian" speed="13.89" length="112.36" width="6.60" shape="13.20,77.64 13.20,190.00"/>
        <lane id="gneE10_1" index="1" allow="bus" speed="13.89" length="112.36" width="3.14" shape="8.23,77.64 8.23,190.00"/>
        <lane id="gneE10_2" index="2" allow="passenger" speed="13.89" length="112.36" width="3.24" shape="4.94,77.64 4.94,190.00"/>
        <lane id="gneE10_3" index="3" allow="passenger" speed="13.89" length="112.36" width="2.78" shape="1.83,77.64 1.83,190.00"/>
        <lane id="gneE10_4" index="4" allow="passenger" speed="13.89" length="112.36" width="3.31" shape="-1.31,77.64 -1.31,190.00"/>
        <lane id="gneE10_5" index="5" allow="passenger" speed="13.89" length="112.36" width="2.76" shape="-4.45,77.64 -4.45,190.00"/>
        <lane id="gneE10_6" index="6" allow="bicycle" speed="13.89" length="112.36" width="2.00" shape="-6.93,77.64 -6.93,190.00"/>
        <lane id="gneE10_7" index="7" allow="pedestrian" speed="13.89" length="112.36" width="6.60" shape="-11.33,77.64 -11.33,190.00"/>
    </edge>
    <edge id="gneE11" from="gneJ11" to="gneJ12" priority="1">
        <lane id="gneE11_0" index="0" allow="pedestrian" speed="13.89" length="20.00" width="6.60" shape="13.20,190.00 13.20,210.00"/>
        <lane id="gneE11_1" index="1" allow="bus" speed="13.89" length="20.00" width="3.14" shape="8.23,190.00 8.23,210.00"/>
        <lane id="gneE11_2" index="2" allow="passenger" speed="13.89" length="20.00" width="3.24" shape="4.94,190.00 4.94,210.00"/>
        <lane id="gneE11_3" index="3" allow="passenger" speed="13.89" length="20.00" width="2.78" shape="1.83,190.00 1.83,210.00"/>
        <lane id="gneE11_4" index="4" allow="passenger" speed="13.89" length="20.00" width="3.31" shape="-1.31,190.00 -1.31,210.00"/>
        <lane id="gneE11_5" index="5" allow="passenger" speed="13.89" length="20.00" width="2.76" shape="-4.45,190.00 -4.45,210.00"/>
        <lane id="gneE11_6" index="6" allow="bicycle" speed="13.89" length="20.00" width="2.00" shape="-6.93,190.00 -6.93,210.00"/>
        <lane id="gneE11_7" index="7" allow="pedestrian" speed="13.89" length="20.00" width="6.60" shape="-11.33,190.00 -11.33,210.00"/>
    </edge>
    <edge id="gneE7" from="gneJ7" to="gneJ8" priority="1">
        <lane id="gneE7_0" index="0" allow="pedestrian" speed="13.89" length="45.21" width="6.60" shape="-16.13,72.84 -61.34,72.84"/>
        <lane id="gneE7_1" index="1" speed="13.89" length="45.21" width="2.25" shape="-16.13,68.32 -61.34,68.32"/>
        <lane id="gneE7_2" index="2" allow="passenger" speed="13.89" length="45.21" width="2.25" shape="-16.13,65.97 -61.34,65.97"/>
    </edge>
    <edge id="gneE8" from="gneJ9" to="gneJ7" priority="1">
        <lane id="gneE8_0" index="0" allow="pedestrian" speed="13.89" length="43.34" width="6.60" shape="61.34,72.84 18.00,72.84"/>
        <lane id="gneE8_1" index="1" allow="passenger" speed="13.89" length="43.34" width="2.25" shape="61.34,68.32 18.00,68.32"/>
        <lane id="gneE8_2" index="2" allow="passenger" speed="13.89" length="43.34" width="2.25" shape="61.34,65.97 18.00,65.97"/>
    </edge>
    <edge id="gneE9" from="gneJ10" to="gneJ7" priority="1">
        <lane id="gneE9_0" index="0" allow="pedestrian" speed="13.89" length="51.94" width="6.60" shape="13.20,-0.00 13.20,51.94"/>
        <lane id="gneE9_1" index="1" allow="bus bicycle" speed="13.89" length="51.94" width="3.14" shape="8.23,-0.00 8.23,51.94"/>
        <lane id="gneE9_2" index="2" allow="passenger bicycle" speed="13.89" length="51.94" width="3.24" shape="4.94,-0.00 4.94,51.94"/>
        <lane id="gneE9_3" index="3" allow="passenger bicycle" speed="13.89" length="51.94" width="2.78" shape="1.83,-0.00 1.83,51.94"/>
        <lane id="gneE9_4" index="4" allow="passenger bicycle" speed="13.89" length="51.94" width="3.31" shape="-1.31,-0.00 -1.31,51.94"/>
        <lane id="gneE9_5" index="5" allow="passenger bicycle" speed="13.89" length="51.94" width="2.76" shape="-4.45,-0.00 -4.45,51.94"/>
        <lane id="gneE9_6" index="6" allow="bicycle" speed="13.89" length="51.94" width="2.00" shape="-6.93,-0.00 -6.93,51.94"/>
        <lane id="gneE9_7" index="7" allow="pedestrian" speed="13.89" length="51.94" width="6.60" shape="-11.33,-0.00 -11.33,51.94"/>
    </edge>

    <tlLogic id="gneJ11" type="static" programID="0" offset="0">
        <phase duration="10" state="GGGGGG"/>
        <phase duration="3" state="yyyyyy"/>
        <phase duration="40" state="rrrrrr"/>
    </tlLogic>
    <tlLogic id="gneJ7" type="static" programID="0" offset="0">
        <phase duration="28" state="gGGrrrrrrrrrGGgGrGr"/>
        <phase duration="5" state="gGGrrrrrrrrrGGgrrrr"/>
        <phase duration="3" state="yyyrrrrrrrrryygrrrr"/>
        <phase duration="6" state="rrrrrrrrrrrrrrGrrrr"/>
        <phase duration="3" state="rrrrrrrrrrrrrryrrrr"/>
        <phase duration="23" state="rrrGggGGGGgGrrrrGrG"/>
        <phase duration="10" state="rrrGggGGGGgGrrrrrrr"/>
        <phase duration="3" state="rrryyyyyyyyyrrrrrrr"/>
        <phase duration="9" state="rrrrrrrrrrrrrrrrrrr"/>
    </tlLogic>

    <junction id="gneJ10" type="dead_end" x="-14.68" y="0.00" incLanes="" intLanes="" shape="-14.63,-0.00 16.50,-0.00"/>
    <junction id="gneJ11" type="traffic_light" x="-14.68" y="190.00" incLanes="gneE10_0 gneE10_1 gneE10_2 gneE10_3 gneE10_4 gneE10_5 gneE10_6 gneE10_7" intLanes=":gneJ11_0_0 :gneJ11_0_1 :gneJ11_0_2 :gneJ11_0_3 :gneJ11_0_4 :gneJ11_0_5" shape="-14.63,190.00 16.50,190.00 -14.63,190.00">
        <request index="0" response="000000" foes="000000" cont="0"/>
        <request index="1" response="000000" foes="000000" cont="0"/>
        <request index="2" response="000000" foes="000000" cont="0"/>
        <request index="3" response="000000" foes="000000" cont="0"/>
        <request index="4" response="000000" foes="000000" cont="0"/>
        <request index="5" response="000000" foes="000000" cont="0"/>
    </junction>
    <junction id="gneJ12" type="dead_end" x="-14.68" y="210.00" incLanes="gneE11_0 gneE11_1 gneE11_2 gneE11_3 gneE11_4 gneE11_5 gneE11_6 gneE11_7" intLanes="" shape="16.50,210.00 -14.63,210.00"/>
    <junction id="gneJ7" type="traffic_light" x="-14.68" y="64.79" incLanes="gneE8_0 gneE8_1 gneE8_2 gneE9_0 gneE9_1 gneE9_2 gneE9_3 gneE9_4 gneE9_5 gneE9_6 gneE9_7 -gneE7_0 -gneE7_1 -gneE7_2 :gneJ7_w1_0 :gneJ7_w2_0 :gneJ7_w3_0 :gneJ7_w0_0" intLanes=":gneJ7_15_0 :gneJ7_1_0 :gneJ7_1_1 :gneJ7_3_0 :gneJ7_16_0 :gneJ7_17_0 :gneJ7_6_0 :gneJ7_6_1 :gneJ7_6_2 :gneJ7_6_3 :gneJ7_18_0 :gneJ7_11_0 :gneJ7_12_0 :gneJ7_12_1 :gneJ7_19_0 :gneJ7_c0_0 :gneJ7_c1_0 :gneJ7_c2_0 :gneJ7_c3_0" shape="-14.63,77.64 16.50,77.64 18.00,76.14 18.00,53.44 16.50,51.94 -14.63,51.94 -16.13,53.44 -16.13,76.14">
        <request index="0" response="0001000101111001000" foes="0011100101111001000" cont="1"/>
        <request index="1" response="0000000111111011000" foes="1010100111111011000" cont="0"/>
        <request index="2" response="0000000111111011000" foes="1010100111111011000" cont="0"/>
        <request index="3" response="0000000000000000000" foes="0101111000000000111" cont="0"/>
        <request index="4" response="1000000101111000000" foes="1100111101111000110" cont="1"/>
        <request index="5" response="0010000000000011000" foes="0110011000000011000" cont="1"/>
        <request index="6" response="0000000000000000000" foes="0101111000000000111" cont="0"/>
        <request index="7" response="0000000000000000000" foes="0101111000000000111" cont="0"/>
        <request index="8" response="0000000000000000000" foes="0101111000000000111" cont="0"/>
        <request index="9" response="0000000000000000000" foes="0101111000000000111" cont="0"/>
        <request index="10" response="1000000100000000000" foes="1100111100000000110" cont="1"/>
        <request index="11" response="0000000000000000000" foes="0101111000000000111" cont="0"/>
        <request index="12" response="0000000111111111000" foes="1010000111111111000" cont="0"/>
        <request index="13" response="0000000111111111000" foes="1010000111111111000" cont="0"/>
        <request index="14" response="0001000111111011111" foes="1001000111111011111" cont="1"/>
        <request index="15" response="0000000101111001000" foes="0000100101111001001" cont="0"/>
        <request index="16" response="0000011000000000111" foes="0000011000000100111" cont="0"/>
        <request index="17" response="0000000111111111000" foes="0000000111111111000" cont="0"/>
        <request index="18" response="0000111000000000110" foes="0000111010000010110" cont="0"/>
    </junction>
    <junction id="gneJ8" type="dead_end" x="-61.34" y="64.79" incLanes="gneE7_0 gneE7_1 gneE7_2" intLanes="" shape="-61.34,64.74 -61.34,76.14 -61.34,64.84"/>
    <junction id="gneJ9" type="dead_end" x="61.34" y="64.79" incLanes="-gneE8_0 -gneE8_1 -gneE8_2" intLanes="" shape="61.34,64.84 61.34,53.44 61.34,64.74"/>

    <junction id=":gneJ7_15_0" type="internal" x="5.76" y="73.56" incLanes=":gneJ7_0_0" intLanes=":gneJ7_3_0 :gneJ7_6_0 :gneJ7_6_1 :gneJ7_6_2 :gneJ7_6_3 :gneJ7_11_0 :gneJ7_14_0 :gneJ7_c0_0 :gneJ7_c1_0"/>
    <junction id=":gneJ7_16_0" type="internal" x="-12.13" y="67.93" incLanes=":gneJ7_4_0" intLanes=":gneJ7_1_0 :gneJ7_1_1 :gneJ7_6_0 :gneJ7_6_1 :gneJ7_6_2 :gneJ7_6_3 :gneJ7_11_0 :gneJ7_12_0 :gneJ7_12_1 :gneJ7_14_0 :gneJ7_c2_0 :gneJ7_c3_0"/>
    <junction id=":gneJ7_17_0" type="internal" x="6.66" y="57.10" incLanes=":gneJ7_5_0 gneE9_1" intLanes=":gneJ7_3_0 :gneJ7_4_0 :gneJ7_12_0 :gneJ7_12_1 :gneJ7_c1_0 :gneJ7_c2_0"/>
    <junction id=":gneJ7_18_0" type="internal" x="-12.13" y="65.28" incLanes=":gneJ7_10_0" intLanes=":gneJ7_1_0 :gneJ7_1_1 :gneJ7_11_0 :gneJ7_12_0 :gneJ7_12_1 :gneJ7_14_0 :gneJ7_c2_0 :gneJ7_c3_0"/>
    <junction id=":gneJ7_19_0" type="internal" x="-10.54" y="64.84" incLanes=":gneJ7_14_0 gneE8_1 gneE8_2" intLanes=":gneJ7_0_0 :gneJ7_1_0 :gneJ7_1_1 :gneJ7_3_0 :gneJ7_4_0 :gneJ7_6_0 :gneJ7_6_1 :gneJ7_6_2 :gneJ7_6_3 :gneJ7_10_0 :gneJ7_11_0 :gneJ7_c0_0 :gneJ7_c3_0"/>

    <connection from="-gneE7" to="-gneE8" fromLane="1" toLane="1" via=":gneJ7_12_0" tl="gneJ7" linkIndex="12" dir="s" state="o"/>
    <connection from="-gneE7" to="-gneE8" fromLane="2" toLane="2" via=":gneJ7_12_1" tl="gneJ7" linkIndex="13" dir="s" state="o"/>
    <connection from="-gneE7" to="gneE10" fromLane="2" toLane="5" via=":gneJ7_14_0" tl="gneJ7" linkIndex="14" dir="l" state="o"/>
    <connection from="gneE10" to="gneE11" fromLane="1" toLane="1" via=":gneJ11_0_0" tl="gneJ11" linkIndex="0" dir="s" state="o"/>
    <connection from="gneE10" to="gneE11" fromLane="2" toLane="2" via=":gneJ11_0_1" tl="gneJ11" linkIndex="1" dir="s" state="o"/>
    <connection from="gneE10" to="gneE11" fromLane="3" toLane="3" via=":gneJ11_0_2" tl="gneJ11" linkIndex="2" dir="s" state="o"/>
    <connection from="gneE10" to="gneE11" fromLane="4" toLane="4" via=":gneJ11_0_3" tl="gneJ11" linkIndex="3" dir="s" state="o"/>
    <connection from="gneE10" to="gneE11" fromLane="5" toLane="5" via=":gneJ11_0_4" tl="gneJ11" linkIndex="4" dir="s" state="o"/>
    <connection from="gneE10" to="gneE11" fromLane="6" toLane="6" via=":gneJ11_0_5" tl="gneJ11" linkIndex="5" dir="s" state="o"/>
    <connection from="gneE8" to="gneE10" fromLane="1" toLane="2" via=":gneJ7_0_0" tl="gneJ7" linkIndex="0" dir="r" state="o"/>
    <connection from="gneE8" to="gneE7" fromLane="1" toLane="1" via=":gneJ7_1_0" tl="gneJ7" linkIndex="1" dir="s" state="o"/>
    <connection from="gneE8" to="gneE7" fromLane="2" toLane="2" via=":gneJ7_1_1" tl="gneJ7" linkIndex="2" dir="s" state="o"/>
    <connection from="gneE9" to="gneE10" fromLane="1" toLane="1" via=":gneJ7_3_0" tl="gneJ7" linkIndex="3" dir="s" state="o"/>
    <connection from="gneE9" to="gneE7" fromLane="1" toLane="1" via=":gneJ7_4_0" tl="gneJ7" linkIndex="4" dir="l" state="o"/>
    <connection from="gneE9" to="-gneE8" fromLane="2" toLane="1" via=":gneJ7_5_0" tl="gneJ7" linkIndex="5" dir="r" state="o"/>
    <connection from="gneE9" to="gneE10" fromLane="2" toLane="2" via=":gneJ7_6_0" tl="gneJ7" linkIndex="6" dir="s" state="o"/>
    <connection from="gneE9" to="gneE10" fromLane="3" toLane="3" via=":gneJ7_6_1" tl="gneJ7" linkIndex="7" dir="s" state="o"/>
    <connection from="gneE9" to="gneE10" fromLane="4" toLane="4" via=":gneJ7_6_2" tl="gneJ7" linkIndex="8" dir="s" state="o"/>
    <connection from="gneE9" to="gneE10" fromLane="5" toLane="5" via=":gneJ7_6_3" tl="gneJ7" linkIndex="9" dir="s" state="o"/>
    <connection from="gneE9" to="gneE7" fromLane="5" toLane="2" via=":gneJ7_10_0" tl="gneJ7" linkIndex="10" dir="l" state="o"/>
    <connection from="gneE9" to="gneE10" fromLane="6" toLane="6" via=":gneJ7_11_0" tl="gneJ7" linkIndex="11" dir="s" state="o"/>

    <connection from=":gneJ11_0" to="gneE11" fromLane="0" toLane="1" dir="s" state="M"/>
    <connection from=":gneJ11_0" to="gneE11" fromLane="1" toLane="2" dir="s" state="M"/>
    <connection from=":gneJ11_0" to="gneE11" fromLane="2" toLane="3" dir="s" state="M"/>
    <connection from=":gneJ11_0" to="gneE11" fromLane="3" toLane="4" dir="s" state="M"/>
    <connection from=":gneJ11_0" to="gneE11" fromLane="4" toLane="5" dir="s" state="M"/>
    <connection from=":gneJ11_0" to="gneE11" fromLane="5" toLane="6" dir="s" state="M"/>
    <connection from=":gneJ7_0" to="gneE10" fromLane="0" toLane="2" via=":gneJ7_15_0" dir="r" state="m"/>
    <connection from=":gneJ7_15" to="gneE10" fromLane="0" toLane="2" dir="r" state="M"/>
    <connection from=":gneJ7_1" to="gneE7" fromLane="0" toLane="1" dir="s" state="M"/>
    <connection from=":gneJ7_1" to="gneE7" fromLane="1" toLane="2" dir="s" state="M"/>
    <connection from=":gneJ7_3" to="gneE10" fromLane="0" toLane="1" dir="s" state="M"/>
    <connection from=":gneJ7_4" to="gneE7" fromLane="0" toLane="1" via=":gneJ7_16_0" dir="l" state="m"/>
    <connection from=":gneJ7_16" to="gneE7" fromLane="0" toLane="1" dir="l" state="M"/>
    <connection from=":gneJ7_5" to="-gneE8" fromLane="0" toLane="1" via=":gneJ7_17_0" dir="r" state="m"/>
    <connection from=":gneJ7_17" to="-gneE8" fromLane="0" toLane="1" dir="r" state="M"/>
    <connection from=":gneJ7_6" to="gneE10" fromLane="0" toLane="2" dir="s" state="M"/>
    <connection from=":gneJ7_6" to="gneE10" fromLane="1" toLane="3" dir="s" state="M"/>
    <connection from=":gneJ7_6" to="gneE10" fromLane="2" toLane="4" dir="s" state="M"/>
    <connection from=":gneJ7_6" to="gneE10" fromLane="3" toLane="5" dir="s" state="M"/>
    <connection from=":gneJ7_10" to="gneE7" fromLane="0" toLane="2" via=":gneJ7_18_0" dir="l" state="m"/>
    <connection from=":gneJ7_18" to="gneE7" fromLane="0" toLane="2" dir="l" state="M"/>
    <connection from=":gneJ7_11" to="gneE10" fromLane="0" toLane="6" dir="s" state="M"/>
    <connection from=":gneJ7_12" to="-gneE8" fromLane="0" toLane="1" dir="s" state="M"/>
    <connection from=":gneJ7_12" to="-gneE8" fromLane="1" toLane="2" dir="s" state="M"/>
    <connection from=":gneJ7_14" to="gneE10" fromLane="0" toLane="5" via=":gneJ7_19_0" dir="l" state="m"/>
    <connection from=":gneJ7_19" to="gneE10" fromLane="0" toLane="5" dir="l" state="M"/>

    <connection from=":gneJ10_w0" to="gneE9" fromLane="0" toLane="0" dir="s" state="M"/>
    <connection from=":gneJ11_w0" to="gneE11" fromLane="0" toLane="0" dir="s" state="M"/>
    <connection from="gneE10" to=":gneJ11_w0" fromLane="0" toLane="0" dir="s" state="M"/>
    <connection from=":gneJ11_w1" to="gneE11" fromLane="0" toLane="0" dir="s" state="M"/>
    <connection from="gneE10" to=":gneJ11_w1" fromLane="0" toLane="0" dir="s" state="M"/>
    <connection from="gneE11" to=":gneJ12_w0" fromLane="0" toLane="0" dir="s" state="M"/>
    <connection from=":gneJ7_c0" to=":gneJ7_w0" fromLane="0" toLane="0" dir="s" state="M"/>
    <connection from=":gneJ7_c1" to=":gneJ7_w1" fromLane="0" toLane="0" dir="s" state="M"/>
    <connection from=":gneJ7_c2" to=":gneJ7_w2" fromLane="0" toLane="0" dir="s" state="M"/>
    <connection from=":gneJ7_c3" to=":gneJ7_w3" fromLane="0" toLane="0" dir="s" state="M"/>
    <connection from=":gneJ7_w0" to=":gneJ7_c3" fromLane="0" toLane="0" tl="gneJ7" linkIndex="18" dir="s" state="m"/>
    <connection from=":gneJ7_w0" to="gneE7" fromLane="0" toLane="0" dir="s" state="M"/>
    <connection from=":gneJ7_w0" to="gneE10" fromLane="0" toLane="0" dir="s" state="M"/>
    <connection from=":gneJ7_w1" to=":gneJ7_c0" fromLane="0" toLane="0" tl="gneJ7" linkIndex="15" dir="s" state="m"/>
    <connection from=":gneJ7_w1" to="gneE10" fromLane="0" toLane="0" dir="s" state="M"/>
    <connection from="gneE8" to=":gneJ7_w1" fromLane="0" toLane="0" dir="s" state="M"/>
    <connection from=":gneJ7_w2" to=":gneJ7_c1" fromLane="0" toLane="0" tl="gneJ7" linkIndex="16" dir="s" state="m"/>
    <connection from=":gneJ7_w2" to="-gneE8" fromLane="0" toLane="0" dir="s" state="M"/>
    <connection from="gneE9" to=":gneJ7_w2" fromLane="0" toLane="0" dir="s" state="M"/>
    <connection from=":gneJ7_w3" to=":gneJ7_c2" fromLane="0" toLane="0" tl="gneJ7" linkIndex="17" dir="s" state="m"/>
    <connection from="gneE9" to=":gneJ7_w3" fromLane="0" toLane="0" dir="s" state="M"/>
    <connection from="-gneE7" to=":gneJ7_w3" fromLane="0" toLane="0" dir="s" state="M"/>
    <connection from=":gneJ8_w0" to="-gneE7" fromLane="0" toLane="0" dir="s" state="M"/>
    <connection from="gneE7" to=":gneJ8_w0" fromLane="0" toLane="0" dir="s" state="M"/>
    <connection from=":gneJ9_w0" to="gneE8" fromLane="0" toLane="0" dir="s" state="M"/>
    <connection from="-gneE8" to=":gneJ9_w0" fromLane="0" toLane="0" dir="s" state="M"/>
</net>
