<?xml version="1.0" encoding="UTF-8"?>

<!-- generated on Fri Sep 14 17:47:14 2018 by Netedit Version 0.32.0
<?xml version="1.0" encoding="UTF-8"?>

<configuration xmlns:xsi="http://www.w3.org/2001/XMLSchema-instance" xsi:noNamespaceSchemaLocation="http://sumo.dlr.de/xsd/netconvertConfiguration.xsd">

    <input>
        <sumo-net-file value="/Users/lst1023/Documents/sumo_input/city_cross_4lanes_002/city_cross_4lanes_002.net.xml"/>
    </input>

    <output>
        <output-file value="/Users/lst1023/Documents/sumo_input/city_cross_4lanes_002_construct/city_cross_4lanes_construct_002.net.xml"/>
    </output>

    <processing>
        <no-internal-links value="false"/>
        <no-turnarounds value="true"/>
        <offset.disable-normalization value="true"/>
        <lefthand value="false"/>
        <junctions.corner-detail value="0"/>
        <rectangular-lane-cut value="false"/>
        <walkingareas value="false"/>
    </processing>

</configuration>
-->

<net version="0.27" xmlns:xsi="http://www.w3.org/2001/XMLSchema-instance" xsi:noNamespaceSchemaLocation="http://sumo.dlr.de/xsd/net_file.xsd">

    <location netOffset="0.00,0.00" convBoundary="-68.70,0.00,68.70,232.96" origBoundary="-10000000000.00,-10000000000.00,10000000000.00,10000000000.00" projParameter="!"/>

    <edge id=":gneJ0_w0" function="walkingarea">
        <lane id=":gneJ0_w0_0" index="0" allow="pedestrian" speed="1.00" length="21.11" width="3.20" shape="8.83,0.00 12.03,0.00 -12.28,0.00 -9.08,0.00"/>
    </edge>
    <edge id=":gneJ1_0" function="internal">
        <lane id=":gneJ1_0_0" index="0" allow="bicycle" speed="13.89" length="18.82" width="2.59" shape="-7.44,139.08 -7.81,128.80 -8.93,121.45 -9.36,120.44"/>
    </edge>
    <edge id=":gneJ1_1" function="internal">
        <lane id=":gneJ1_1_0" index="0" allow="bicycle" speed="13.89" length="29.32" width="2.58" shape="-7.44,139.08 -7.69,109.76"/>
    </edge>
    <edge id=":gneJ1_2" function="internal">
        <lane id=":gneJ1_2_0" index="0" disallow="bicycle pedestrian" speed="13.89" length="7.00" width="3.14" shape="-4.58,143.08 -4.58,139.08 -4.89,136.10"/>
    </edge>
    <edge id=":gneJ1_3" function="internal">
        <lane id=":gneJ1_3_0" index="0" disallow="bicycle pedestrian" speed="13.89" length="7.88" width="3.14" shape="-4.58,143.08 -4.58,139.08 -4.89,135.21"/>
    </edge>
    <edge id=":gneJ1_4" function="internal">
        <lane id=":gneJ1_4_0" index="0" disallow="bicycle pedestrian" speed="13.89" length="33.32" width="2.95" shape="-4.58,143.08 -4.58,139.08 -4.83,109.76"/>
        <lane id=":gneJ1_4_1" index="1" disallow="bicycle pedestrian" speed="13.89" length="33.32" shape="-1.53,143.08 -1.53,139.08 -1.65,109.76"/>
    </edge>
    <edge id=":gneJ1_20" function="internal">
        <lane id=":gneJ1_20_0" index="0" speed="13.89" length="6.68" width="2.59" shape="-9.36,120.44 -10.79,117.04 -13.40,115.58"/>
    </edge>
    <edge id=":gneJ1_21" function="internal">
        <lane id=":gneJ1_21_0" index="0" speed="13.89" length="13.79" width="3.14" shape="-4.89,136.10 -5.12,133.84 -6.76,130.09 -9.49,127.85 -13.31,127.10"/>
    </edge>
    <edge id=":gneJ1_22" function="internal">
        <lane id=":gneJ1_22_0" index="0" speed="13.89" length="15.74" width="3.14" shape="-4.89,135.21 -5.12,132.42 -6.76,127.67 -9.50,124.81 -13.33,123.86"/>
    </edge>
    <edge id=":gneJ1_6" function="internal">
        <lane id=":gneJ1_6_0" index="0" allow="bus" speed="13.89" length="29.66" shape="16.38,130.13 12.38,130.17 -13.28,130.37"/>
    </edge>
    <edge id=":gneJ1_7" function="internal">
        <lane id=":gneJ1_7_0" index="0" disallow="bicycle pedestrian" speed="13.89" length="8.84" width="2.95" shape="16.50,126.91 12.50,126.95 9.04,127.73 8.09,128.60"/>
    </edge>
    <edge id=":gneJ1_8" function="internal">
        <lane id=":gneJ1_8_0" index="0" disallow="bicycle pedestrian" speed="13.89" length="29.87" width="3.14" shape="16.50,126.91 12.50,126.95 -13.31,127.10"/>
        <lane id=":gneJ1_8_1" index="1" disallow="bicycle pedestrian" speed="13.89" length="29.87" width="3.14" shape="16.54,123.70 12.54,123.73 -13.33,123.86"/>
        <lane id=":gneJ1_8_2" index="2" disallow="bicycle pedestrian" speed="13.89" length="29.87" width="3.14" shape="16.53,120.47 12.53,120.50 -13.36,120.62"/>
        <lane id=":gneJ1_8_3" index="3" disallow="bicycle pedestrian" speed="13.89" length="29.87" width="1.98" shape="16.52,117.79 12.52,117.83 -13.38,117.96"/>
    </edge>
    <edge id=":gneJ1_12" function="internal">
        <lane id=":gneJ1_12_0" index="0" disallow="bicycle pedestrian" speed="13.89" length="25.10" width="2.95" shape="16.52,117.79 12.52,117.83 4.93,117.38 -0.49,115.89 -3.74,113.35 -4.83,109.76"/>
    </edge>
    <edge id=":gneJ1_13" function="internal">
        <lane id=":gneJ1_13_0" index="0" allow="bicycle" speed="13.89" length="25.92" width="2.59" shape="12.52,115.44 -13.40,115.58"/>
    </edge>
    <edge id=":gneJ1_23" function="internal">
        <lane id=":gneJ1_23_0" index="0" speed="13.89" length="11.45" width="2.95" shape="8.09,128.60 6.56,130.02 5.07,133.80 4.58,139.08"/>
    </edge>
    <edge id=":gneJ1_14" function="internal">
        <lane id=":gneJ1_14_0" index="0" allow="bicycle" speed="13.89" length="31.32" width="2.95" shape="7.43,109.76 7.63,139.08"/>
        <lane id=":gneJ1_14_1" index="1" disallow="bicycle pedestrian" speed="13.89" length="31.32" width="2.95" shape="4.57,105.76 4.57,109.76 4.58,139.08"/>
    </edge>
    <edge id=":gneJ1_16" function="internal">
        <lane id=":gneJ1_16_0" index="0" allow="bus" speed="13.89" length="20.45" shape="4.57,105.76 4.57,109.76 3.45,118.78 0.11,125.22 0.02,125.28"/>
    </edge>
    <edge id=":gneJ1_17" function="internal">
        <lane id=":gneJ1_17_0" index="0" disallow="bicycle pedestrian" speed="13.89" length="18.15" width="3.14" shape="4.57,105.76 4.57,109.76 3.45,117.35 0.10,122.77 0.01,122.82"/>
    </edge>
    <edge id=":gneJ1_18" function="internal">
        <lane id=":gneJ1_18_0" index="0" disallow="bicycle pedestrian" speed="13.89" length="33.32" width="2.95" shape="1.52,105.76 1.52,109.76 1.53,139.08"/>
    </edge>
    <edge id=":gneJ1_19" function="internal">
        <lane id=":gneJ1_19_0" index="0" disallow="bicycle pedestrian" speed="13.89" length="8.55" width="1.98" shape="1.52,105.76 1.52,109.76 0.59,113.35 -0.03,113.91"/>
    </edge>
    <edge id=":gneJ1_24" function="internal">
        <lane id=":gneJ1_24_0" index="0" speed="13.89" length="14.59" shape="0.02,125.28 -5.47,129.08 -13.28,130.37"/>
    </edge>
    <edge id=":gneJ1_25" function="internal">
        <lane id=":gneJ1_25_0" index="0" speed="13.89" length="14.25" width="3.14" shape="0.01,122.82 -5.49,126.02 -13.31,127.10"/>
    </edge>
    <edge id=":gneJ1_26" function="internal">
        <lane id=":gneJ1_26_0" index="0" speed="13.89" length="14.39" width="1.98" shape="-0.03,113.91 -2.21,115.91 -6.86,117.45 -13.38,117.96"/>
    </edge>
    <edge id=":gneJ1_c0" function="crossing" crossingEdges="gneE2">
        <lane id=":gneJ1_c0_0" index="0" allow="pedestrian" speed="1.00" length="17.57" width="4.00" shape="10.50,114.17 10.40,131.74"/>
    </edge>
    <edge id=":gneJ1_c2" function="crossing" crossingEdges="gneE3">
        <lane id=":gneJ1_c2_0" index="0" allow="pedestrian" speed="1.00" length="17.69" width="4.00" shape="-11.28,131.97 -11.40,114.28"/>
    </edge>
    <edge id=":gneJ1_w0" function="walkingarea">
        <lane id=":gneJ1_w0_0" index="0" allow="pedestrian" speed="1.00" length="5.29" width="4.00" shape="-9.28,131.96 -13.25,132.07 -13.25,135.27 -12.03,139.08 -8.83,139.08"/>
    </edge>
    <edge id=":gneJ1_w1" function="walkingarea">
        <lane id=":gneJ1_w1_0" index="0" allow="pedestrian" speed="1.00" length="0.10" width="2.95" shape="-6.05,139.08 -3.10,139.08 -3.00,139.08 -0.05,139.08"/>
    </edge>
    <edge id=":gneJ1_w2" function="walkingarea">
        <lane id=":gneJ1_w2_0" index="0" allow="pedestrian" speed="1.00" length="5.24" width="4.00" shape="9.20,139.08 12.40,139.08 12.28,135.02 12.25,131.82 12.40,131.75 8.40,131.73"/>
    </edge>
    <edge id=":gneJ1_w3" function="walkingarea">
        <lane id=":gneJ1_w3_0" index="0" allow="pedestrian" speed="1.00" length="12.51" width="4.00" shape="8.50,114.15 12.50,114.18 12.52,114.05 12.49,110.85 12.02,109.76 8.82,109.76 8.72,109.76 8.72,113.76"/>
    </edge>
    <edge id=":gneJ1_w4" function="walkingarea">
        <lane id=":gneJ1_w4_0" index="0" allow="pedestrian" speed="1.00" length="16.03" width="4.00" shape="-9.08,109.76 -12.28,109.76 -13.43,110.98 -13.43,114.18 -13.40,114.29 -9.40,114.27"/>
    </edge>
    <edge id=":gneJ10_0" function="internal">
        <lane id=":gneJ10_0_0" index="0" disallow="pedestrian" speed="13.89" length="0.10" width="2.95" shape="1.53,168.00 1.53,168.00"/>
    </edge>
    <edge id=":gneJ10_w0" function="walkingarea">
        <lane id=":gneJ10_w0_0" index="0" allow="pedestrian" speed="1.00" length="0.10" width="3.20" shape="9.20,168.00 12.40,168.00 12.40,168.00 9.20,168.00"/>
    </edge>
    <edge id=":gneJ2_w0" function="walkingarea">
        <lane id=":gneJ2_w0_0" index="0" allow="pedestrian" speed="1.00" length="0.10" width="2.95" shape="-0.05,232.96 -3.00,232.96 -3.10,232.96 -6.05,232.96"/>
    </edge>
    <edge id=":gneJ2_w1" function="walkingarea">
        <lane id=":gneJ2_w1_0" index="0" allow="pedestrian" speed="1.00" length="21.23" width="3.20" shape="-8.83,232.96 -12.03,232.96 12.40,232.96 9.20,232.96"/>
    </edge>
    <edge id=":gneJ3_w0" function="walkingarea">
        <lane id=":gneJ3_w0_0" index="0" allow="pedestrian" speed="1.00" length="0.10" width="3.20" shape="68.89,131.29 68.92,134.49 68.69,110.32 68.72,113.52"/>
    </edge>
    <edge id=":gneJ4_w0" function="walkingarea">
        <lane id=":gneJ4_w0_0" index="0" allow="pedestrian" speed="1.00" length="0.10" width="3.20" shape="-68.70,114.18 -68.70,110.98 -68.70,135.27 -68.70,132.07"/>
    </edge>
    <edge id=":gneJ5_0" function="internal">
        <lane id=":gneJ5_0_0" index="0" disallow="pedestrian" speed="13.89" length="0.10" shape="-1.65,43.00 -1.65,43.00"/>
    </edge>
    <edge id=":gneJ5_w0" function="walkingarea">
        <lane id=":gneJ5_w0_0" index="0" allow="pedestrian" speed="1.00" length="0.10" width="3.20" shape="-9.08,43.00 -12.28,43.00 -12.28,43.00 -9.08,43.00"/>
    </edge>
    <edge id=":gneJ6_0" function="internal">
        <lane id=":gneJ6_0_0" index="0" allow="bicycle" speed="13.89" length="3.10" width="2.58" shape="-1.65,18.00 -7.69,18.00"/>
        <lane id=":gneJ6_0_1" index="1" disallow="bicycle pedestrian" speed="13.89" length="3.10" width="2.95" shape="-1.65,18.00 -4.83,18.00"/>
        <lane id=":gneJ6_0_2" index="2" disallow="bicycle pedestrian" speed="13.89" length="3.10" shape="-1.65,18.00 -1.65,18.00"/>
    </edge>
    <edge id=":gneJ6_w0" function="walkingarea">
        <lane id=":gneJ6_w0_0" index="0" allow="pedestrian" speed="1.00" length="0.10" width="3.20" shape="-9.08,18.00 -12.28,18.00 -12.28,18.00 -9.08,18.00"/>
    </edge>
    <edge id=":gneJ7_0" function="internal">
        <lane id=":gneJ7_0_0" index="0" disallow="pedestrian" speed="13.89" length="0.10" width="2.95" shape="-1.53,210.00 -1.53,210.00"/>
    </edge>
    <edge id=":gneJ7_w0" function="walkingarea">
        <lane id=":gneJ7_w0_0" index="0" allow="pedestrian" speed="1.00" length="0.10" width="3.20" shape="-8.83,210.00 -12.03,210.00 -12.03,210.00 -8.83,210.00"/>
    </edge>
    <edge id=":gneJ7_w1" function="walkingarea">
        <lane id=":gneJ7_w1_0" index="0" allow="pedestrian" speed="1.00" length="0.10" width="2.95" shape="-6.05,210.00 -3.10,210.00 -3.00,210.00 -0.05,210.00"/>
    </edge>
    <edge id=":gneJ8_0" function="internal">
        <lane id=":gneJ8_0_0" index="0" allow="bicycle" speed="13.89" length="3.02" width="2.58" shape="-1.53,196.00 -7.44,196.00"/>
        <lane id=":gneJ8_0_1" index="1" speed="13.89" length="3.02" width="2.95" shape="-1.53,196.00 -4.58,196.00"/>
        <lane id=":gneJ8_0_2" index="2" speed="13.89" length="3.02" width="2.95" shape="-1.53,196.00 -1.53,196.00"/>
    </edge>
    <edge id=":gneJ8_w0" function="walkingarea">
        <lane id=":gneJ8_w0_0" index="0" allow="pedestrian" speed="1.00" length="0.10" width="3.20" shape="-8.83,196.00 -12.03,196.00 -12.03,196.00 -8.83,196.00"/>
    </edge>
    <edge id=":gneJ8_w1" function="walkingarea">
        <lane id=":gneJ8_w1_0" index="0" allow="pedestrian" speed="1.00" length="0.10" width="2.95" shape="-0.05,196.00 -3.00,196.00 -3.10,196.00 -6.05,196.00"/>
    </edge>
    <edge id=":gneJ9_0" function="internal">
        <lane id=":gneJ9_0_0" index="0" allow="bicycle" speed="13.89" length="3.08" width="2.95" shape="1.53,190.00 7.63,190.00"/>
        <lane id=":gneJ9_0_1" index="1" disallow="bicycle pedestrian" speed="13.89" length="3.08" width="2.95" shape="1.53,190.00 4.58,190.00"/>
        <lane id=":gneJ9_0_2" index="2" disallow="bicycle pedestrian" speed="13.89" length="3.08" width="2.95" shape="1.53,190.00 1.53,190.00"/>
    </edge>
    <edge id=":gneJ9_w0" function="walkingarea">
        <lane id=":gneJ9_w0_0" index="0" allow="pedestrian" speed="1.00" length="0.10" width="3.20" shape="9.20,190.00 12.40,190.00 12.40,190.00 9.20,190.00"/>
    </edge>

    <edge id="-gneE0.0" from="gneJ1" to="gneJ5" priority="1" shape="0.00,110.93 0.00,43.00">
        <lane id="-gneE0.0_0" index="0" allow="pedestrian" speed="13.89" length="66.76" shape="-10.68,109.76 -10.68,43.00"/>
        <lane id="-gneE0.0_1" index="1" allow="bicycle" speed="13.89" length="66.76" width="2.58" shape="-7.69,109.76 -7.69,43.00"/>
        <lane id="-gneE0.0_2" index="2" disallow="bicycle pedestrian" speed="13.89" length="66.76" width="2.95" shape="-4.83,109.76 -4.83,43.00"/>
        <lane id="-gneE0.0_3" index="3" disallow="bicycle pedestrian" speed="13.89" length="66.76" shape="-1.65,109.76 -1.65,43.00"/>
    </edge>
    <edge id="-gneE0.81" from="gneJ5" to="gneJ6" priority="1" shape="0.00,43.00 0.00,18.00">
        <lane id="-gneE0.81_0" index="0" allow="pedestrian" speed="13.89" length="25.00" shape="-10.68,43.00 -10.68,18.00"/>
        <lane id="-gneE0.81_1" index="1" disallow="all" speed="13.89" length="25.00" width="2.58" shape="-7.69,43.00 -7.69,18.00"/>
        <lane id="-gneE0.81_2" index="2" disallow="all" speed="13.89" length="25.00" width="2.95" shape="-4.83,43.00 -4.83,18.00"/>
        <lane id="-gneE0.81_3" index="3" disallow="pedestrian" speed="13.89" length="25.00" shape="-1.65,43.00 -1.65,18.00"/>
    </edge>
    <edge id="-gneE0.92" from="gneJ6" to="gneJ0" priority="1" shape="0.00,18.00 0.00,0.00">
        <lane id="-gneE0.92_0" index="0" allow="pedestrian" speed="13.89" length="18.00" shape="-10.68,18.00 -10.68,0.00"/>
        <lane id="-gneE0.92_1" index="1" allow="bicycle" speed="13.89" length="18.00" width="2.58" shape="-7.69,18.00 -7.69,0.00"/>
        <lane id="-gneE0.92_2" index="2" disallow="bicycle pedestrian" speed="13.89" length="18.00" width="2.95" shape="-4.83,18.00 -4.83,0.00"/>
        <lane id="-gneE0.92_3" index="3" disallow="bicycle pedestrian" speed="13.89" length="18.00" shape="-1.65,18.00 -1.65,0.00"/>
    </edge>
    <edge id="-gneE1.0" from="gneJ2" to="gneJ7" priority="1" shape="0.00,232.96 0.00,210.00">
        <lane id="-gneE1.0_0" index="0" allow="pedestrian" speed="13.89" length="22.96" shape="-10.43,232.96 -10.43,210.00"/>
        <lane id="-gneE1.0_1" index="1" allow="bicycle" speed="13.89" length="22.96" width="2.58" shape="-7.44,232.96 -7.44,210.00"/>
        <lane id="-gneE1.0_2" index="2" speed="13.89" length="22.96" width="2.95" shape="-4.58,232.96 -4.58,210.00"/>
        <lane id="-gneE1.0_3" index="3" speed="13.89" length="22.96" width="2.95" shape="-1.53,232.96 -1.53,210.00"/>
    </edge>
    <edge id="-gneE1.35" from="gneJ7" to="gneJ8" priority="1" shape="0.00,210.00 0.00,196.00">
        <lane id="-gneE1.35_0" index="0" allow="pedestrian" speed="13.89" length="14.00" shape="-10.43,210.00 -10.43,196.00"/>
        <lane id="-gneE1.35_1" index="1" disallow="all" speed="13.89" length="14.00" width="2.58" shape="-7.44,210.00 -7.44,196.00"/>
        <lane id="-gneE1.35_2" index="2" disallow="all" speed="13.89" length="14.00" width="2.95" shape="-4.58,210.00 -4.58,196.00"/>
        <lane id="-gneE1.35_3" index="3" disallow="pedestrian" speed="13.89" length="14.00" width="2.95" shape="-1.53,210.00 -1.53,196.00"/>
    </edge>
    <edge id="-gneE1.47" from="gneJ8" to="gneJ1" priority="1" shape="0.00,196.00 0.00,110.93">
        <lane id="-gneE1.47_0" index="0" allow="pedestrian" speed="13.89" length="56.92" shape="-10.43,196.00 -10.43,139.08"/>
        <lane id="-gneE1.47_1" index="1" allow="bicycle" speed="13.89" length="56.92" width="2.58" shape="-7.44,196.00 -7.44,139.08"/>
        <lane id="-gneE1.47_2" index="2" speed="13.89" length="52.92" endOffset="4.00" width="2.95" shape="-4.58,196.00 -4.58,143.08"/>
        <lane id="-gneE1.47_3" index="3" speed="13.89" length="52.92" endOffset="4.00" width="2.95" shape="-1.53,196.00 -1.53,143.08"/>
    </edge>
    <edge id="gneE0" from="gneJ0" to="gneJ1" priority="1" spreadType="center" shape="6.04,0.00 6.03,111.23">
        <lane id="gneE0_0" index="0" allow="pedestrian" speed="13.89" length="109.76" shape="10.43,0.00 10.42,109.76"/>
        <lane id="gneE0_1" index="1" allow="bicycle" speed="13.89" length="109.76" width="2.58" shape="7.44,0.00 7.43,109.76"/>
        <lane id="gneE0_2" index="2" disallow="bicycle pedestrian" speed="13.89" length="105.76" endOffset="4.00" width="2.95" shape="4.58,-0.00 4.57,105.76"/>
        <lane id="gneE0_3" index="3" disallow="bicycle pedestrian" speed="13.89" length="105.76" endOffset="4.00" width="2.95" shape="1.53,-0.00 1.52,105.76"/>
    </edge>
    <edge id="gneE1.0" from="gneJ1" to="gneJ10" priority="4" shape="0.00,110.93 0.00,168.00">
        <lane id="gneE1.0_0" index="0" allow="pedestrian" speed="13.89" length="28.92" shape="10.80,139.08 10.80,168.00"/>
        <lane id="gneE1.0_1" index="1" allow="bicycle" speed="13.89" length="28.92" width="2.95" shape="7.63,139.08 7.63,168.00"/>
        <lane id="gneE1.0_2" index="2" disallow="bicycle pedestrian" speed="13.89" length="28.92" width="2.95" shape="4.58,139.08 4.58,168.00"/>
        <lane id="gneE1.0_3" index="3" disallow="bicycle pedestrian" speed="13.89" length="28.92" width="2.95" shape="1.53,139.08 1.53,168.00"/>
    </edge>
    <edge id="gneE1.52" from="gneJ10" to="gneJ9" priority="4" shape="0.00,168.00 0.00,190.00">
        <lane id="gneE1.52_0" index="0" allow="pedestrian" speed="13.89" length="22.00" shape="10.80,168.00 10.80,190.00"/>
        <lane id="gneE1.52_1" index="1" disallow="all" speed="13.89" length="22.00" width="2.95" shape="7.63,168.00 7.63,190.00"/>
        <lane id="gneE1.52_2" index="2" disallow="all" speed="13.89" length="22.00" width="2.95" shape="4.58,168.00 4.58,190.00"/>
        <lane id="gneE1.52_3" index="3" disallow="pedestrian" speed="13.89" length="22.00" width="2.95" shape="1.53,168.00 1.53,190.00"/>
    </edge>
    <edge id="gneE1.67" from="gneJ9" to="gneJ2" priority="4" shape="0.00,190.00 0.00,232.96">
        <lane id="gneE1.67_0" index="0" allow="pedestrian" speed="13.89" length="42.96" shape="10.80,190.00 10.80,232.96"/>
        <lane id="gneE1.67_1" index="1" allow="bicycle" speed="13.89" length="42.96" width="2.95" shape="7.63,190.00 7.63,232.96"/>
        <lane id="gneE1.67_2" index="2" disallow="bicycle pedestrian" speed="13.89" length="42.96" width="2.95" shape="4.58,190.00 4.58,232.96"/>
        <lane id="gneE1.67_3" index="3" disallow="bicycle pedestrian" speed="13.89" length="42.96" width="2.95" shape="1.53,190.00 1.53,232.96"/>
    </edge>
    <edge id="gneE2" from="gneJ3" to="gneJ1" priority="1" spreadType="center" shape="68.70,122.41 0.00,123.05">
        <lane id="gneE2_0" index="0" allow="pedestrian" speed="13.89" length="56.33" shape="68.90,132.89 12.26,133.42"/>
        <lane id="gneE2_1" index="1" allow="bus" speed="13.89" length="52.33" endOffset="4.00" width="3.10" shape="68.87,129.64 16.38,130.13"/>
        <lane id="gneE2_2" index="2" disallow="bicycle pedestrian" speed="13.89" length="52.33" endOffset="4.00" width="3.14" shape="68.84,126.42 16.50,126.91"/>
        <lane id="gneE2_3" index="3" disallow="bicycle pedestrian" speed="13.89" length="52.33" endOffset="4.00" width="3.09" shape="68.81,123.21 16.54,123.70"/>
        <lane id="gneE2_4" index="4" disallow="bicycle pedestrian" speed="13.89" length="52.33" endOffset="4.00" width="3.17" shape="68.78,119.98 16.53,120.47"/>
        <lane id="gneE2_5" index="5" disallow="bicycle pedestrian" speed="13.89" length="52.33" endOffset="4.00" width="1.98" shape="68.76,117.30 16.52,117.79"/>
        <lane id="gneE2_6" index="6" allow="bicycle" speed="13.89" length="56.33" width="2.59" shape="68.74,114.92 12.52,115.44"/>
        <lane id="gneE2_7" index="7" allow="pedestrian" speed="13.89" length="56.33" shape="68.71,111.92 12.51,112.45"/>
    </edge>
    <edge id="gneE3" from="gneJ1" to="gneJ4" priority="1">
        <lane id="gneE3_0" index="0" allow="pedestrian" speed="13.89" length="55.36" shape="-13.25,133.67 -68.70,133.67"/>
        <lane id="gneE3_1" index="1" allow="bus" speed="13.89" length="55.36" shape="-13.28,130.37 -68.70,130.37"/>
        <lane id="gneE3_2" index="2" disallow="bicycle pedestrian" speed="13.89" length="55.36" width="3.14" shape="-13.31,127.10 -68.70,127.10"/>
        <lane id="gneE3_3" index="3" disallow="bicycle pedestrian" speed="13.89" length="55.36" width="3.14" shape="-13.33,123.86 -68.70,123.86"/>
        <lane id="gneE3_4" index="4" disallow="bicycle pedestrian" speed="13.89" length="55.36" width="3.14" shape="-13.36,120.62 -68.70,120.62"/>
        <lane id="gneE3_5" index="5" disallow="bicycle pedestrian" speed="13.89" length="55.36" width="1.98" shape="-13.38,117.96 -68.70,117.96"/>
        <lane id="gneE3_6" index="6" allow="bicycle" speed="13.89" length="55.36" width="2.59" shape="-13.40,115.58 -68.70,115.58"/>
        <lane id="gneE3_7" index="7" allow="pedestrian" speed="13.89" length="55.36" shape="-13.43,112.58 -68.70,112.58"/>
    </edge>

    <tlLogic id="gneJ1" type="static" programID="0" offset="0">
        <phase duration="28" state="gGggGGrrrrrrrrGGggGgGG"/>
        <phase duration="5" state="gGggGGrrrrrrrrGGggGgrr"/>
        <phase duration="3" state="yyyyyyrrrrrrrryyyyygrr"/>
        <phase duration="6" state="rrrrrrrrrrrrrrrrrrrGrr"/>
        <phase duration="3" state="rrrrrrrrrrrrrrrrrrryrr"/>
        <phase duration="33" state="rrrrrrGgGGGGgGrrrrrrrr"/>
        <phase duration="3" state="rrrrrryyyyyyyyrrrrrrrr"/>
        <phase duration="9" state="rrrrrrrrrrrrrrrrrrrrrr"/>
    </tlLogic>

    <junction id="gneJ0" type="dead_end" x="0.00" y="0.00" incLanes="-gneE0.92_0 -gneE0.92_1 -gneE0.92_2 -gneE0.92_3" intLanes="" shape="0.05,0.00 -12.28,0.00 -0.05,0.00"/>
    <junction id="gneJ1" type="traffic_light" x="0.00" y="110.93" incLanes="-gneE1.47_0 -gneE1.47_1 -gneE1.47_2 -gneE1.47_3 gneE2_0 gneE2_1 gneE2_2 gneE2_3 gneE2_4 gneE2_5 gneE2_6 gneE2_7 gneE0_0 gneE0_1 gneE0_2 gneE0_3 :gneJ1_w3_0 :gneJ1_w0_0" intLanes=":gneJ1_20_0 :gneJ1_1_0 :gneJ1_21_0 :gneJ1_22_0 :gneJ1_4_0 :gneJ1_4_1 :gneJ1_6_0 :gneJ1_23_0 :gneJ1_8_0 :gneJ1_8_1 :gneJ1_8_2 :gneJ1_8_3 :gneJ1_12_0 :gneJ1_13_0 :gneJ1_14_0 :gneJ1_14_1 :gneJ1_24_0 :gneJ1_25_0 :gneJ1_18_0 :gneJ1_26_0 :gneJ1_c0_0 :gneJ1_c2_0" shape="-11.69,139.08 12.05,139.08 12.55,125.74 12.50,110.80 11.69,109.76 -11.94,109.76 -13.44,111.01 -13.22,137.60" customShape="1">
        <request index="0" response="1000000010111101000000" foes="1010110010111101000000" cont="1"/>
        <request index="1" response="0000000011111101000000" foes="0010110011111101000000" cont="0"/>
        <request index="2" response="1000000010111101000010" foes="1010110010111101000010" cont="1"/>
        <request index="3" response="1000000010111101000010" foes="1010110010111101000010" cont="1"/>
        <request index="4" response="0000000011111101000000" foes="0010110011111101000000" cont="0"/>
        <request index="5" response="0000000011111101000000" foes="0010110011111101000000" cont="0"/>
        <request index="6" response="1100000000000000000000" foes="1111111100000000111111" cont="0"/>
        <request index="7" response="0100000000000001000000" foes="0101001100000001000000" cont="1"/>
        <request index="8" response="1100000000000000000000" foes="1111111100000000111111" cont="0"/>
        <request index="9" response="1100000000000000000000" foes="1111111100000000111111" cont="0"/>
        <request index="10" response="1100000000000000000000" foes="1111111100000000111111" cont="0"/>
        <request index="11" response="1100000000000000000000" foes="1111111100000000111111" cont="0"/>
        <request index="12" response="0100000010000000000000" foes="0111111110000000110010" cont="0"/>
        <request index="13" response="1100000000000000000000" foes="1111111100000000111111" cont="0"/>
        <request index="14" response="0000000011111111000000" foes="0000000011111111000000" cont="0"/>
        <request index="15" response="0000000011111111000000" foes="0000000011111111000000" cont="0"/>
        <request index="16" response="1001000011111101111111" foes="1001000011111101111111" cont="1"/>
        <request index="17" response="1001000011111101111111" foes="1001000011111101111111" cont="1"/>
        <request index="18" response="0000000011111111000000" foes="0000000011111111000000" cont="0"/>
        <request index="19" response="1000000011111101111111" foes="1000000011111101111111" cont="1"/>
        <request index="20" response="0000000000000000000000" foes="0000000011111111000000" cont="0"/>
        <request index="21" response="0000000000000000000000" foes="0010110010111101001101" cont="0"/>
    </junction>
    <junction id="gneJ10" type="priority" x="0.00" y="168.00" incLanes="gneE1.0_0 gneE1.0_1 gneE1.0_2 gneE1.0_3" intLanes=":gneJ10_0_0" shape="0.05,168.00 12.40,168.00 0.05,168.00">
        <request index="0" response="0" foes="0" cont="0"/>
    </junction>
    <junction id="gneJ2" type="dead_end" x="0.00" y="232.96" incLanes="gneE1.67_0 gneE1.67_1 gneE1.67_2 gneE1.67_3" intLanes="" shape="-0.05,232.96 12.40,232.96 0.05,232.96"/>
    <junction id="gneJ3" type="dead_end" x="68.70" y="110.93" incLanes="" intLanes="" shape="68.69,110.32 68.92,134.49"/>
    <junction id="gneJ4" type="dead_end" x="-68.70" y="110.93" incLanes="gneE3_0 gneE3_1 gneE3_2 gneE3_3 gneE3_4 gneE3_5 gneE3_6 gneE3_7" intLanes="" shape="-68.70,135.27 -68.70,110.98"/>
    <junction id="gneJ5" type="priority" x="0.00" y="43.00" incLanes="-gneE0.0_0 -gneE0.0_1 -gneE0.0_2 -gneE0.0_3" intLanes=":gneJ5_0_0" shape="-12.28,43.00 -0.05,43.00 -12.28,43.00">
        <request index="0" response="0" foes="0" cont="0"/>
    </junction>
    <junction id="gneJ6" type="priority" x="0.00" y="18.00" incLanes="-gneE0.81_0 -gneE0.81_1 -gneE0.81_2 -gneE0.81_3" intLanes=":gneJ6_0_0 :gneJ6_0_1 :gneJ6_0_2" shape="-12.28,18.00 -0.05,18.00 -12.28,18.00">
        <request index="0" response="000" foes="000" cont="0"/>
        <request index="1" response="000" foes="000" cont="0"/>
        <request index="2" response="000" foes="000" cont="0"/>
    </junction>
    <junction id="gneJ7" type="priority" x="0.00" y="210.00" incLanes="-gneE1.0_0 -gneE1.0_1 -gneE1.0_2 -gneE1.0_3" intLanes=":gneJ7_0_0" shape="-12.03,210.00 -0.05,210.00 -12.03,210.00">
        <request index="0" response="0" foes="0" cont="0"/>
    </junction>
    <junction id="gneJ8" type="priority" x="0.00" y="196.00" incLanes="-gneE1.35_0 -gneE1.35_1 -gneE1.35_2 -gneE1.35_3" intLanes=":gneJ8_0_0 :gneJ8_0_1 :gneJ8_0_2" shape="-12.03,196.00 -0.05,196.00 -12.03,196.00">
        <request index="0" response="000" foes="000" cont="0"/>
        <request index="1" response="000" foes="000" cont="0"/>
        <request index="2" response="000" foes="000" cont="0"/>
    </junction>
    <junction id="gneJ9" type="priority" x="0.00" y="190.00" incLanes="gneE1.52_0 gneE1.52_1 gneE1.52_2 gneE1.52_3" intLanes=":gneJ9_0_0 :gneJ9_0_1 :gneJ9_0_2" shape="0.05,190.00 12.40,190.00 0.05,190.00">
        <request index="0" response="000" foes="000" cont="0"/>
        <request index="1" response="000" foes="000" cont="0"/>
        <request index="2" response="000" foes="000" cont="0"/>
    </junction>

    <junction id=":gneJ1_20_0" type="internal" x="-9.36" y="120.44" incLanes=":gneJ1_0_0" intLanes=":gneJ1_6_0 :gneJ1_8_0 :gneJ1_8_1 :gneJ1_8_2 :gneJ1_8_3 :gneJ1_13_0 :gneJ1_16_0 :gneJ1_17_0 :gneJ1_19_0 :gneJ1_c2_0"/>
    <junction id=":gneJ1_21_0" type="internal" x="-4.89" y="136.10" incLanes=":gneJ1_2_0 -gneE1.47_1" intLanes=":gneJ1_1_0 :gneJ1_6_0 :gneJ1_8_0 :gneJ1_8_1 :gneJ1_8_2 :gneJ1_8_3 :gneJ1_13_0 :gneJ1_16_0 :gneJ1_17_0 :gneJ1_19_0 :gneJ1_c2_0"/>
    <junction id=":gneJ1_22_0" type="internal" x="-4.89" y="135.21" incLanes=":gneJ1_3_0 -gneE1.47_1" intLanes=":gneJ1_1_0 :gneJ1_6_0 :gneJ1_8_0 :gneJ1_8_1 :gneJ1_8_2 :gneJ1_8_3 :gneJ1_13_0 :gneJ1_16_0 :gneJ1_17_0 :gneJ1_19_0 :gneJ1_c2_0"/>
    <junction id=":gneJ1_23_0" type="internal" x="8.09" y="128.60" incLanes=":gneJ1_7_0 gneE2_1" intLanes=":gneJ1_6_0 :gneJ1_14_0 :gneJ1_14_1 :gneJ1_18_0 :gneJ1_c0_0"/>
    <junction id=":gneJ1_24_0" type="internal" x="0.02" y="125.28" incLanes=":gneJ1_16_0 -gneE1.47_1 -gneE1.47_2 -gneE1.47_3" intLanes=":gneJ1_0_0 :gneJ1_1_0 :gneJ1_2_0 :gneJ1_3_0 :gneJ1_4_0 :gneJ1_4_1 :gneJ1_6_0 :gneJ1_8_0 :gneJ1_8_1 :gneJ1_8_2 :gneJ1_8_3 :gneJ1_12_0 :gneJ1_13_0 :gneJ1_18_0 :gneJ1_c2_0"/>
    <junction id=":gneJ1_25_0" type="internal" x="0.01" y="122.82" incLanes=":gneJ1_17_0 -gneE1.47_1 -gneE1.47_2 -gneE1.47_3" intLanes=":gneJ1_0_0 :gneJ1_1_0 :gneJ1_2_0 :gneJ1_3_0 :gneJ1_4_0 :gneJ1_4_1 :gneJ1_6_0 :gneJ1_8_0 :gneJ1_8_1 :gneJ1_8_2 :gneJ1_8_3 :gneJ1_12_0 :gneJ1_13_0 :gneJ1_18_0 :gneJ1_c2_0"/>