<?xml version="1.0" encoding="UTF-8"?>

<!-- generated on Wed Aug  1 18:17:09 2018 by Netedit Version 0.32.0
<?xml version="1.0" encoding="UTF-8"?>

<configuration xmlns:xsi="http://www.w3.org/2001/XMLSchema-instance" xsi:noNamespaceSchemaLocation="http://sumo.dlr.de/xsd/netconvertConfiguration.xsd">

    <input>
        <sumo-net-file value="data/crossroad.net.xml"/>
    </input>

    <output>
        <output-file value="data/crossroad.net.xml"/>
    </output>

    <processing>
        <no-turnarounds value="true"/>
        <offset.disable-normalization value="true"/>
        <lefthand value="false"/>
        <junctions.corner-detail value="0"/>
        <rectangular-lane-cut value="false"/>
        <walkingareas value="false"/>
    </processing>

</configuration>
-->

<net version="0.27" xmlns:xsi="http://www.w3.org/2001/XMLSchema-instance" xsi:noNamespaceSchemaLocation="http://sumo.dlr.de/xsd/net_file.xsd">

    <location netOffset="0.00,0.00" convBoundary="-100.00,0.00,100.00,413.45" origBoundary="-10000000000.00,-10000000000.00,10000000000.00,10000000000.00" projParameter="!"/>

    <edge id=":1_0" function="internal">
        <lane id=":1_0_0" index="0" speed="12.45" length="5.37" width="3.66" shape="-5.64,41.80 -5.85,40.34 -6.47,39.30 -7.51,38.68 -8.97,38.47"/>
    </edge>
    <edge id=":1_1" function="internal">
        <lane id=":1_1_0" index="0" speed="11.00" length="17.94" width="3.66" shape="-5.64,41.80 -5.64,23.86"/>
        <lane id=":1_1_1" index="1" speed="11.00" length="17.94" width="3.66" shape="-1.88,41.80 -1.88,23.86"/>
    </edge>
    <edge id=":1_3" function="internal">
        <lane id=":1_3_0" index="0" speed="12.45" length="7.23" width="3.66" shape="-1.88,41.80 -1.20,37.05 0.05,34.97"/>
    </edge>
    <edge id=":1_16" function="internal">
        <lane id=":1_16_0" index="0" speed="12.45" length="10.27" width="3.66" shape="0.05,34.97 0.83,33.66 4.22,31.63 8.97,30.95"/>
    </edge>
    <edge id=":1_4" function="internal">
        <lane id=":1_4_0" index="0" speed="12.45" length="5.37" width="3.66" shape="8.97,38.47 7.51,38.68 6.47,39.30 5.85,40.34 5.64,41.80"/>
    </edge>
    <edge id=":1_5" function="internal">
        <lane id=":1_5_0" index="0" speed="13.89" length="17.94" width="3.66" shape="8.97,38.47 -8.97,38.47"/>
        <lane id=":1_5_1" index="1" speed="13.89" length="17.94" width="3.66" shape="8.97,34.71 -8.97,34.71"/>
    </edge>
    <edge id=":1_7" function="internal">
        <lane id=":1_7_0" index="0" speed="12.45" length="7.23" width="3.66" shape="8.97,34.71 4.22,34.03 2.14,32.78"/>
    </edge>
    <edge id=":1_17" function="internal">
        <lane id=":1_17_0" index="0" speed="12.45" length="10.27" width="3.66" shape="2.14,32.78 0.83,32.00 -1.20,28.61 -1.88,23.86"/>
    </edge>
    <edge id=":1_8" function="internal">
        <lane id=":1_8_0" index="0" speed="13.89" length="5.37" width="3.66" shape="5.64,23.86 5.85,25.32 6.47,26.36 7.51,26.98 8.97,27.19"/>
    </edge>
    <edge id=":1_9" function="internal">
        <lane id=":1_9_0" index="0" speed="12.45" length="17.94" width="3.66" shape="5.64,23.86 5.64,41.80"/>
        <lane id=":1_9_1" index="1" speed="12.45" length="17.94" width="3.66" shape="1.88,23.86 1.88,41.80"/>
    </edge>
    <edge id=":1_11" function="internal">
        <lane id=":1_11_0" index="0" speed="13.89" length="7.23" width="3.66" shape="1.88,23.86 1.20,28.61 -0.05,30.69"/>
    </edge>
    <edge id=":1_18" function="internal">
        <lane id=":1_18_0" index="0" speed="13.89" length="10.27" width="3.66" shape="-0.05,30.69 -0.83,32.00 -4.22,34.03 -8.97,34.71"/>
    </edge>
    <edge id=":1_12" function="internal">
        <lane id=":1_12_0" index="0" speed="12.45" length="5.37" width="3.66" shape="-8.97,27.19 -7.51,26.98 -6.47,26.36 -5.85,25.32 -5.64,23.86"/>
    </edge>
    <edge id=":1_13" function="internal">
        <lane id=":1_13_0" index="0" speed="13.89" length="17.94" width="3.66" shape="-8.97,27.19 8.97,27.19"/>
        <lane id=":1_13_1" index="1" speed="13.89" length="17.94" width="3.66" shape="-8.97,30.95 8.97,30.95"/>
    </edge>
    <edge id=":1_15" function="internal">
        <lane id=":1_15_0" index="0" speed="12.45" length="7.23" width="3.66" shape="-8.97,30.95 -4.22,31.63 -2.14,32.88"/>
    </edge>
    <edge id=":1_19" function="internal">
        <lane id=":1_19_0" index="0" speed="12.45" length="10.27" width="3.66" shape="-2.14,32.88 -0.83,33.66 1.20,37.05 1.88,41.80"/>
    </edge>
    <edge id=":2_0" function="internal">
        <lane id=":2_0_0" index="0" speed="13.89" length="17.94" width="3.66" shape="8.97,419.09 -8.97,419.09"/>
        <lane id=":2_0_1" index="1" speed="13.89" length="17.94" width="3.66" shape="8.97,415.33 -8.97,415.33"/>
    </edge>
    <edge id=":2_2" function="internal">
        <lane id=":2_2_0" index="0" speed="12.45" length="7.23" width="3.66" shape="8.97,415.33 4.22,414.65 2.14,413.40"/>
    </edge>
    <edge id=":2_9" function="internal">
        <lane id=":2_9_0" index="0" speed="12.45" length="10.27" width="3.66" shape="2.14,413.40 0.83,412.62 -1.20,409.23 -1.88,404.48"/>
    </edge>
    <edge id=":2_3" function="internal">
        <lane id=":2_3_0" index="0" speed="12.45" length="5.37" width="3.66" shape="5.64,404.48 5.85,405.94 6.47,406.98 7.51,407.60 8.97,407.81"/>
    </edge>
    <edge id=":2_4" function="internal">
        <lane id=":2_4_0" index="0" speed="12.45" length="11.43" width="3.66" shape="1.88,404.48 2.32,407.58 3.65,409.80 5.87,411.13 8.97,411.57"/>
    </edge>
    <edge id=":2_5" function="internal">
        <lane id=":2_5_0" index="0" speed="12.45" length="17.50" width="3.66" shape="1.88,404.48 1.20,409.23 -0.83,412.62 -4.22,414.65 -8.97,415.33"/>
    </edge>
    <edge id=":2_6" function="internal">
        <lane id=":2_6_0" index="0" speed="12.45" length="5.37" width="3.66" shape="-8.97,407.81 -7.51,407.60 -6.47,406.98 -5.85,405.94 -5.64,404.48"/>
    </edge>
    <edge id=":2_7" function="internal">
        <lane id=":2_7_0" index="0" speed="13.89" length="17.94" width="3.66" shape="-8.97,407.81 8.97,407.81"/>
        <lane id=":2_7_1" index="1" speed="13.89" length="17.94" width="3.66" shape="-8.97,411.57 8.97,411.57"/>
    </edge>

    <edge id="0t1" from="0" to="1" priority="1">
        <lane id="0t1_0" index="0" speed="13.89" length="23.86" width="3.66" shape="5.64,0.00 5.64,23.86"/>
        <lane id="0t1_1" index="1" speed="13.89" length="23.86" width="3.66" shape="1.88,0.00 1.88,23.86"/>
    </edge>
    <edge id="1t0" from="1" to="0" priority="1">
        <lane id="1t0_0" index="0" speed="11.00" length="23.86" width="3.66" shape="-5.64,23.86 -5.64,0.00"/>
        <lane id="1t0_1" index="1" speed="11.00" length="23.86" width="3.66" shape="-1.88,23.86 -1.88,0.00"/>
    </edge>
    <edge id="1t2" from="1" to="2" priority="1">
        <lane id="1t2_0" index="0" speed="11.00" length="362.68" width="3.66" shape="5.64,41.80 5.64,404.48"/>
        <lane id="1t2_1" index="1" speed="11.00" length="362.68" width="3.66" shape="1.88,41.80 1.88,404.48"/>
    </edge>
    <edge id="1t3" from="1" to="3" priority="1">
        <lane id="1t3_0" index="0" speed="13.89" length="91.03" width="3.66" shape="-8.97,38.47 -100.00,38.47"/>
        <lane id="1t3_1" index="1" speed="13.89" length="91.03" width="3.66" shape="-8.97,34.71 -100.00,34.71"/>
    </edge>
    <edge id="1t4" from="1" to="4" priority="1">
        <lane id="1t4_0" index="0" speed="13.89" length="91.03" width="3.66" shape="8.97,27.19 100.00,27.19"/>
        <lane id="1t4_1" index="1" speed="13.89" length="91.03" width="3.66" shape="8.97,30.95 100.00,30.95"/>
    </edge>
    <edge id="2t1" from="2" to="1" priority="1">
        <lane id="2t1_0" index="0" speed="11.00" length="362.68" width="3.66" shape="-5.64,404.48 -5.64,41.80"/>
        <lane id="2t1_1" index="1" speed="11.00" length="362.68" width="3.66" shape="-1.88,404.48 -1.88,41.80"/>
    </edge>
    <edge id="2t5" from="2" to="5" priority="1">
        <lane id="2t5_0" index="0" speed="13.89" length="91.03" width="3.66" shape="-8.97,419.09 -100.00,419.09"/>
        <lane id="2t5_1" index="1" speed="13.89" length="91.03" width="3.66" shape="-8.97,415.33 -100.00,415.33"/>
    </edge>
    <edge id="2t6" from="2" to="6" priority="1">
        <lane id="2t6_0" index="0" speed="13.89" length="91.03" width="3.66" shape="8.97,407.81 100.00,407.81"/>
        <lane id="2t6_1" index="1" speed="13.89" length="91.03" width="3.66" shape="8.97,411.57 100.00,411.57"/>
    </edge>
    <edge id="3t1" from="3" to="1" priority="1">
        <lane id="3t1_0" index="0" speed="13.89" length="91.03" width="3.66" shape="-100.00,27.19 -8.97,27.19"/>
        <lane id="3t1_1" index="1" speed="13.89" length="91.03" width="3.66" shape="-100.00,30.95 -8.97,30.95"/>
    </edge>
    <edge id="4t1" from="4" to="1" priority="1">
        <lane id="4t1_0" index="0" speed="13.89" length="91.03" width="3.66" shape="100.00,38.47 8.97,38.47"/>
        <lane id="4t1_1" index="1" speed="13.89" length="91.03" width="3.66" shape="100.00,34.71 8.97,34.71"/>
    </edge>
    <edge id="5t2" from="5" to="2" priority="1">
        <lane id="5t2_0" index="0" speed="13.89" length="91.03" width="3.66" shape="-100.00,407.81 -8.97,407.81"/>
        <lane id="5t2_1" index="1" speed="13.89" length="91.03" width="3.66" shape="-100.00,411.57 -8.97,411.57"/>
    </edge>
    <edge id="6t2" from="6" to="2" priority="1">
        <lane id="6t2_0" index="0" speed="13.89" length="91.03" width="3.66" shape="100.00,419.09 8.97,419.09"/>
        <lane id="6t2_1" index="1" speed="13.89" length="91.03" width="3.66" shape="100.00,415.33 8.97,415.33"/>
    </edge>

    <tlLogic id="2" type="static" programID="0" offset="0">
        <phase duration="20" state="GGgrrrGGG"/>
        <phase duration="2" state="yygrrryyy"/>
        <phase duration="5" state="rrGrrrrrr"/>
        <phase duration="2" state="rryrrrrrr"/>
        <phase duration="20" state="rrrGGGGrr"/>
        <phase duration="2" state="rrryyyyrr"/>
    </tlLogic>
    <tlLogic id="cross_center" type="static" programID="0" offset="0">
        <phase duration="20" state="rrrrGGGgrrrrGGGg"/>
        <phase duration="3" state="rrrryyygrrrryyyg"/>
        <phase duration="5" state="rrrrrrrGrrrrrrrG"/>
        <phase duration="3" state="rrrrrrryrrrrrrry"/>
        <phase duration="30" state="GGGgrrrrGGGgrrrr"/>
        <phase duration="3" state="yyygrrrryyygrrrr"/>
        <phase duration="5" state="rrrGrrrrrrrGrrrr"/>
        <phase duration="3" state="rrryrrrrrrryrrrr"/>
    </tlLogic>

    <junction id="0" type="dead_end" x="0.00" y="0.00" incLanes="1t0_0 1t0_1" intLanes="" shape="0.05,0.00 -7.47,0.00 -0.05,0.00"/>
    <junction id="1" type="traffic_light" x="0.00" y="32.83" incLanes="2t1_0 2t1_1 4t1_0 4t1_1 0t1_0 0t1_1 3t1_0 3t1_1" intLanes=":1_0_0 :1_1_0 :1_1_1 :1_16_0 :1_4_0 :1_5_0 :1_5_1 :1_17_0 :1_8_0 :1_9_0 :1_9_1 :1_18_0 :1_12_0 :1_13_0 :1_13_1 :1_19_0" shape="-7.47,41.80 7.47,41.80 8.97,40.30 8.97,25.36 7.47,23.86 -7.47,23.86 -8.97,25.36 -8.97,40.30">
        <request index="0" response="0000000001100000" foes="0000100001100000" cont="0"/>
        <request index="1" response="1111000011100000" foes="1111100011100000" cont="0"/>
        <request index="2" response="1111000011100000" foes="1111100011100000" cont="0"/>
        <request index="3" response="1110011111100000" foes="1110011111100000" cont="1"/>
        <request index="4" response="0000000000000000" foes="1000011000000000" cont="0"/>
        <request index="5" response="0000000000000000" foes="1000111000001111" cont="0"/>
        <request index="6" response="0000000000000000" foes="1000111000001111" cont="0"/>
        <request index="7" response="0111000000000000" foes="0111111000001110" cont="1"/>
        <request index="8" response="0110000000000000" foes="0110000000001000" cont="0"/>
        <request index="9" response="1110000011110000" foes="1110000011111000" cont="0"/>
        <request index="10" response="1110000011110000" foes="1110000011111000" cont="0"/>
        <request index="11" response="1110000011100111" foes="1110000011100111" cont="1"/>
        <request index="12" response="0000000000000000" foes="0000000010000110" cont="0"/>
        <request index="13" response="0000000000000000" foes="0000111110001110" cont="0"/>
        <request index="14" response="0000000000000000" foes="0000111110001110" cont="0"/>
        <request index="15" response="0000000001110000" foes="0000111001111110" cont="1"/>
    </junction>
    <junction id="2" type="traffic_light" x="0.00" y="413.45" incLanes="6t2_0 6t2_1 1t2_0 1t2_1 5t2_0 5t2_1" intLanes=":2_0_0 :2_0_1 :2_9_0 :2_3_0 :2_4_0 :2_5_0 :2_6_0 :2_7_0 :2_7_1" shape="8.97,420.92 8.97,405.98 7.47,404.48 -7.47,404.48 -8.97,405.98 -8.97,420.92">
        <request index="0" response="000000000" foes="000100000" cont="0"/>
        <request index="1" response="000000000" foes="000100000" cont="0"/>
        <request index="2" response="110000000" foes="110100000" cont="1"/>
        <request index="3" response="110000000" foes="110000000" cont="0"/>
        <request index="4" response="110000000" foes="110000000" cont="0"/>
        <request index="5" response="110000111" foes="110000111" cont="0"/>
        <request index="6" response="000000000" foes="000000000" cont="0"/>
        <request index="7" response="000000000" foes="000111100" cont="0"/>
        <request index="8" response="000000000" foes="000111100" cont="0"/>
    </junction>
    <junction id="3" type="dead_end" x="-100.00" y="32.83" incLanes="1t3_0 1t3_1" intLanes="" shape="-100.00,32.78 -100.00,40.30 -100.00,32.88"/>
    <junction id="4" type="dead_end" x="100.00" y="32.83" incLanes="1t4_0 1t4_1" intLanes="" shape="100.00,32.88 100.00,25.36 100.00,32.78"/>
    <junction id="5" type="dead_end" x="-100.00" y="413.45" incLanes="2t5_0 2t5_1" intLanes="" shape="-100.00,413.40 -100.00,420.92 -100.00,413.50"/>
    <junction id="6" type="dead_end" x="100.00" y="413.45" incLanes="2t6_0 2t6_1" intLanes="" shape="100.00,413.50 100.00,405.98 100.00,413.40"/>

    <junction id=":1_16_0" type="internal" x="0.05" y="34.97" incLanes=":1_3_0 0t1_0 0t1_1" intLanes=":1_5_0 :1_5_1 :1_7_0 :1_8_0 :1_9_0 :1_9_1 :1_13_0 :1_13_1 :1_15_0"/>
    <junction id=":1_17_0" type="internal" x="2.14" y="32.78" incLanes=":1_7_0 3t1_0 3t1_1" intLanes=":1_1_0 :1_1_1 :1_3_0 :1_9_0 :1_9_1 :1_11_0 :1_12_0 :1_13_0 :1_13_1"/>
    <junction id=":1_18_0" type="internal" x="-0.05" y="30.69" incLanes=":1_11_0 2t1_0 2t1_1" intLanes=":1_0_0 :1_1_0 :1_1_1 :1_5_0 :1_5_1 :1_7_0 :1_13_0 :1_13_1 :1_15_0"/>
    <junction id=":1_19_0" type="internal" x="-2.14" y="32.88" incLanes=":1_15_0 4t1_0 4t1_1" intLanes=":1_1_0 :1_1_1 :1_3_0 :1_4_0 :1_5_0 :1_5_1 :1_9_0 :1_9_1 :1_11_0"/>
    <junction id=":2_9_0" type="internal" x="2.14" y="413.40" incLanes=":2_2_0 5t2_0 5t2_1" intLanes=":2_5_0 :2_7_0 :2_7_1"/>

    <connection from="0t1" to="1t4" fromLane="0" toLane="0" via=":1_8_0" tl="cross_center" linkIndex="8" dir="r" state="o"/>
    <connection from="0t1" to="1t2" fromLane="0" toLane="0" via=":1_9_0" tl="cross_center" linkIndex="9" dir="s" state="o"/>
    <connection from="0t1" to="1t2" fromLane="1" toLane="1" via=":1_9_1" tl="cross_center" linkIndex="10" dir="s" state="o"/>
    <connection from="0t1" to="1t3" fromLane="1" toLane="1" via=":1_11_0" tl="cross_center" linkIndex="11" dir="l" state="o"/>
    <connection from="1t2" to="2t6" fromLane="0" toLane="0" via=":2_3_0" tl="2" linkIndex="3" dir="r" state="o"/>
    <connection from="1t2" to="2t6" fromLane="1" toLane="1" via=":2_4_0" tl="2" linkIndex="4" dir="r" state="o"/>
    <connection from="1t2" to="2t5" fromLane="1" toLane="1" via=":2_5_0" tl="2" linkIndex="5" dir="l" state="o"/>
    <connection from="2t1" to="1t3" fromLane="0" toLane="0" via=":1_0_0" tl="cross_center" linkIndex="0" dir="r" state="o"/>
    <connection from="2t1" to="1t0" fromLane="0" toLane="0" via=":1_1_0" tl="cross_center" linkIndex="1" dir="s" state="o"/>
    <connection from="2t1" to="1t0" fromLane="1" toLane="1" via=":1_1_1" tl="cross_center" linkIndex="2" dir="s" state="o"/>
    <connection from="2t1" to="1t4" fromLane="1" toLane="1" via=":1_3_0" tl="cross_center" linkIndex="3" dir="l" state="o"/>
    <connection from="3t1" to="1t0" fromLane="0" toLane="0" via=":1_12_0" tl="cross_center" linkIndex="12" dir="r" state="o"/>
    <connection from="3t1" to="1t4" fromLane="0" toLane="0" via=":1_13_0" tl="cross_center" linkIndex="13" dir="s" state="o"/>
    <connection from="3t1" to="1t4" fromLane="1" toLane="1" via=":1_13_1" tl="cross_center" linkIndex="14" dir="s" state="o"/>
    <connection from="3t1" to="1t2" fromLane="1" toLane="1" via=":1_15_0" tl="cross_center" linkIndex="15" dir="l" state="o"/>
    <connection from="4t1" to="1t2" fromLane="0" toLane="0" via=":1_4_0" tl="cross_center" linkIndex="4" dir="r" state="o"/>
    <connection from="4t1" to="1t3" fromLane="0" toLane="0" via=":1_5_0" tl="cross_center" linkIndex="5" dir="s" state="o"/>
    <connection from="4t1" to="1t3" fromLane="1" toLane="1" via=":1_5_1" tl="cross_center" linkIndex="6" dir="s" state="o"/>
    <connection from="4t1" to="1t0" fromLane="1" toLane="1" via=":1_7_0" tl="cross_center" linkIndex="7" dir="l" state="o"/>
    <connection from="5t2" to="2t1" fromLane="0" toLane="0" via=":2_6_0" tl="2" linkIndex="6" dir="r" state="o"/>
    <connection from="5t2" to="2t6" fromLane="0" toLane="0" via=":2_7_0" tl="2" linkIndex="7" dir="s" state="o"/>
    <connection from="5t2" to="2t6" fromLane="1" toLane="1" via=":2_7_1" tl="2" linkIndex="8" dir="s" state="o"/>
    <connection from="6t2" to="2t5" fromLane="0" toLane="0" via=":2_0_0" tl="2" linkIndex="0" dir="s" state="o"/>
    <connection from="6t2" to="2t5" fromLane="1" toLane="1" via=":2_0_1" tl="2" linkIndex="1" dir="s" state="o"/>
    <connection from="6t2" to="2t1" fromLane="1" toLane="1" via=":2_2_0" tl="2" linkIndex="2" dir="l" state="o"/>

    <connection from=":1_0" to="1t3" fromLane="0" toLane="0" dir="r" state="M"/>
    <connection from=":1_1" to="1t0" fromLane="0" toLane="0" dir="s" state="M"/>
    <connection from=":1_1" to="1t0" fromLane="1" toLane="1" dir="s" state="M"/>
    <connection from=":1_3" to="1t4" fromLane="0" toLane="1" via=":1_16_0" dir="l" state="m"/>
    <connection from=":1_16" to="1t4" fromLane="0" toLane="1" dir="l" state="M"/>
    <connection from=":1_4" to="1t2" fromLane="0" toLane="0" dir="r" state="M"/>
    <connection from=":1_5" to="1t3" fromLane="0" toLane="0" dir="s" state="M"/>
    <connection from=":1_5" to="1t3" fromLane="1" toLane="1" dir="s" state="M"/>
    <connection from=":1_7" to="1t0" fromLane="0" toLane="1" via=":1_17_0" dir="l" state="m"/>
    <connection from=":1_17" to="1t0" fromLane="0" toLane="1" dir="l" state="M"/>
    <connection from=":1_8" to="1t4" fromLane="0" toLane="0" dir="r" state="M"/>
    <connection from=":1_9" to="1t2" fromLane="0" toLane="0" dir="s" state="M"/>
    <connection from=":1_9" to="1t2" fromLane="1" toLane="1" dir="s" state="M"/>
    <connection from=":1_11" to="1t3" fromLane="0" toLane="1" via=":1_18_0" dir="l" state="m"/>
    <connection from=":1_18" to="1t3" fromLane="0" toLane="1" dir="l" state="M"/>
    <connection from=":1_12" to="1t0" fromLane="0" toLane="0" dir="r" state="M"/>
    <connection from=":1_13" to="1t4" fromLane="0" toLane="0" dir="s" state="M"/>
    <connection from=":1_13" to="1t4" fromLane="1" toLane="1" dir="s" state="M"/>
    <connection from=":1_15" to="1t2" fromLane="0" toLane="1" via=":1_19_0" dir="l" state="m"/>
    <connection from=":1_19" to="1t2" fromLane="0" toLane="1" dir="l" state="M"/>
    <connection from=":2_0" to="2t5" fromLane="0" toLane="0" dir="s" state="M"/>
    <connection from=":2_0" to="2t5" fromLane="1" toLane="1" dir="s" state="M"/>
    <connection from=":2_2" to="2t1" fromLane="0" toLane="1" via=":2_9_0" dir="l" state="m"/>
    <connection from=":2_9" to="2t1" fromLane="0" toLane="1" dir="l" state="M"/>
    <connection from=":2_3" to="2t6" fromLane="0" toLane="0" dir="r" state="M"/>
    <connection from=":2_4" to="2t6" fromLane="0" toLane="1" dir="r" state="M"/>
    <connection from=":2_5" to="2t5" fromLane="0" toLane="1" dir="l" state="M"/>
    <connection from=":2_6" to="2t1" fromLane="0" toLane="0" dir="r" state="M"/>
    <connection from=":2_7" to="2t6" fromLane="0" toLane="0" dir="s" state="M"/>
    <connection from=":2_7" to="2t6" fromLane="1" toLane="1" dir="s" state="M"/>

</net>
